running example: Mon Jun 29 15:39:10 CEST 2020

   setting up example...


running mesher on 4 processors...


 **********************************************
 *** Specfem 2-D Mesher - MPI version       ***
 **********************************************

 Running Git version of the code corresponding to undefined in the case of old tar ball builds
 dating undefined in the case of old tar ball builds

 Reading the parameter file...

 Title of the simulation: Example of simulation with moving sources


 Receiver lines:
   Nb of line sets =            1

 Materials:
   Nb of solid, fluid or porous materials =            1

 --------
 Material #           1  isotropic
 rho,cp,cs   =    1000.0000000000000        1500.0000000000000        0.0000000000000000
 Qkappa, Qmu =    9999.0000000000000        9999.0000000000000
 Material is fluid
 --------


 Mesh from internal meshing:

 Reading interface data from file: ./DATA/./interfaces
 Reading            2  points for interface            1
 Reading            2  points for interface            2

 Total number of layers in z direction =            1
 There are          100  spectral elements along Z in layer            1

 Total number of spectral elements along X =          270
 Total number of spectral elements along Z =          100

 Regions:
   Nb of regions in the mesh =            1

 ------
 Region            1
 IX from            1  to          270
 IZ from            1  to          100
 Material #            1  isotropic
 Material is fluid
 vp     =    1500.00000
 vs     =    0.00000000
 rho    =    1000.00000
 Poisson's ratio =   0.500000000
 QKappa =    9999.00000
 Qmu    =    9999.00000
 ------

 Parameter file successfully read


 Mesh from internal meshing:
   Total number of spectral elements         =        27000

 PML mesh elements:
   using internal mesh, PML elements will be determined in solver run...

 The mesh contains        27000  elements

 Control elements have            4  nodes

 Reading in SOURCE file...

 Source           1
   Initial position xs, zs =   -800.00000000000000       -100.01000000000001
   Velocities vx, vz =    400.00000000000000       -100.00000000000000

   Source type (1=force, 2=moment tensor):            1
   Force source:
   Angle of the source (deg) =    0.0000000000000000

   Time function type (1=Ricker, 2=First derivative, 3=Gaussian, 4=Dirac, 5=Heaviside, 6,7=ocean type, 8=Read from file, 9=burst, 10=Sinusoidal, 11=Ormsby):          10
   Sinusoidal source time function:
   Frequency, delay =    30.000000000000000        0.0000000000000000
   Multiplying factor  =    100000.00000000000

 Source           2
   Initial position xs, zs =    800.00000000000000       -100.01000000000001
   Velocities vx, vz =   -400.00000000000000       -100.00000000000000

   Source type (1=force, 2=moment tensor):            1
   Force source:
   Angle of the source (deg) =    0.0000000000000000

   Time function type (1=Ricker, 2=First derivative, 3=Gaussian, 4=Dirac, 5=Heaviside, 6,7=ocean type, 8=Read from file, 9=burst, 10=Sinusoidal, 11=Ormsby):          10
   Sinusoidal source time function:
   Frequency, delay =    30.000000000000000        0.0000000000000000
   Multiplying factor  =    100000.00000000000

 all sources are okay

 Normals to surface not needed

 Node coordinates:

 reading node coordinates from interfaces...

 Mesh surfaces:
   determining acoustic free surface...
   number of acoustic elements with free surface =            0

   determining absorbing boundary surfaces...
   number of elements with absorbing boundaries =          740


 Mesh dimensions:
   Min and max value of X in the grid =   -1000.0000000000000        1000.0000000000000
   Min and max value of Z in the grid =   -750.00000000000011        0.0000000000000000

 Mesh partitioning:
   decomposing mesh using NPROC =            4

 Graph construction:
   graph adjacency done


 ************ Computing elements load ************
 Number of elastic elements :           0
 Number of acoustic elements :       24816
 Number of viscoelastic elements :           0
 Number of viscoacoustic elements :           0
 Number of elastic PML elements :           0
 Number of acoustic PML elements :        2184
 Number of viscoelastic PML elements :           0
 Number of viscoacoustic PML elements :       32767
 *************************************************


 Partitioning method: SCOTCH

 Coupled interfaces:
 nedges_coupled (acoustic/elastic)     =            0
 nedges_coupled (acoustic/poroelastic) =            0
 nedges_coupled (poroelastic/elastic)  =            0

 Local numbering:
   NPROC:            4
   number of elements:        27000

 decompose mesh all done

 Absorbing boundaries:
   nedge_bound   :          740
   nelemabs_merge:          740

 Saving databases:
   database file: ./OUTPUT_FILES/Database00000.bin
   slice            0  has number of spectral elements =        7896

   database file: ./OUTPUT_FILES/Database00001.bin
   slice            1  has number of spectral elements =        5600

   database file: ./OUTPUT_FILES/Database00002.bin
   slice            2  has number of spectral elements =        7804

   database file: ./OUTPUT_FILES/Database00003.bin
   slice            3  has number of spectral elements =        5700

   VTK mesh files:
   written file: ./OUTPUT_FILES//mesh_materials.vtk
   written file: ./OUTPUT_FILES//mesh_partition_number.vtk
   done

 creating STATIONS file...

 writing the ./DATA/STATIONS file


 There are            8  receivers

 Target positions (x,z) of the            8  receivers

 Receiver            1  =   -300.00000000000000       -110.00000000000000
 Receiver            2  =   -214.28571428571428       -110.00000000000000
 Receiver            3  =   -128.57142857142858       -110.00000000000000
 Receiver            4  =   -42.857142857142833       -110.00000000000000
 Receiver            5  =    42.857142857142833       -110.00000000000000
 Receiver            6  =    128.57142857142856       -110.00000000000000
 Receiver            7  =    214.28571428571433       -110.00000000000000
 Receiver            8  =    300.00000000000000       -110.00000000000000

 This will be a parallel simulation on            4  processor cores


running solver on 4 processors...


 **********************************************
 **** Specfem 2-D Solver - MPI version     ****
 **********************************************

 Running Git version of the code corresponding to undefined in the case of old tar ball builds
 dating undefined in the case of old tar ball builds

 There are            4  MPI processes
 Processes are numbered from 0 to            3

 There is a total of            4  slices


 NDIM =            2

 NGLLX =            5
 NGLLZ =            5

 using single precision for the calculations

 smallest and largest possible floating-point numbers are:    1.17549435E-38   3.40282347E+38

 Reading the parameter file...

 Title of the simulation: Example of simulation with moving sources


 Parameter file successfully read

 Reading in SOURCE file...

 Source           1
   Initial position xs, zs =   -800.00000000000000       -100.01000000000001
   Velocities vx, vz =    400.00000000000000       -100.00000000000000

   Source type (1=force, 2=moment tensor):            1
   Force source:
   Angle of the source (deg) =    0.0000000000000000

   Time function type (1=Ricker, 2=First derivative, 3=Gaussian, 4=Dirac, 5=Heaviside, 6,7=ocean type, 8=Read from file, 9=burst, 10=Sinusoidal, 11=Ormsby):          10
   Sinusoidal source time function:
   Frequency, delay =    30.000000000000000        0.0000000000000000
   Multiplying factor  =    100000.00000000000

 Source           2
   Initial position xs, zs =    800.00000000000000       -100.01000000000001
   Velocities vx, vz =   -400.00000000000000       -100.00000000000000

   Source type (1=force, 2=moment tensor):            1
   Force source:
   Angle of the source (deg) =    0.0000000000000000

   Time function type (1=Ricker, 2=First derivative, 3=Gaussian, 4=Dirac, 5=Heaviside, 6,7=ocean type, 8=Read from file, 9=burst, 10=Sinusoidal, 11=Ormsby):          10
   Sinusoidal source time function:
   Frequency, delay =    30.000000000000000        0.0000000000000000
   Multiplying factor  =    100000.00000000000

 all sources are okay



 -------------------------------------------------------------------------------
 -------------------------------------------------------------------------------
 Program SPECFEM2D:
 -------------------------------------------------------------------------------
 -------------------------------------------------------------------------------
 Example of simulation with moving sources
 -------------------------------------------------------------------------------
 -------------------------------------------------------------------------------
 D a t e : 29 - 06 - 2020                                 T i m e  : 15:39:11
 -------------------------------------------------------------------------------
 -------------------------------------------------------------------------------


 C o n t r o l
 =============

     Number of spectral element control nodes. . .(npgeo) =    8076
     Number of space dimensions. . . . . . . . . . (NDIM) =       2


 C o n t r o l
 =============

     Display frequency . . . .(NSTEP_BETWEEN_OUTPUT_INFO) =   1000
     Color display . . . . . . . . . . . . . . . (colors) =      1
      == 0     black and white display
      == 1     color display
     Numbered mesh . . . . . . . . . . . . . . .(numbers) =      0
      == 0     do not number the mesh
      == 1     number the mesh


 C o n t r o l
 =============

     Seismograms recording type . . . . . . .(seismotype) = 4
     Angle for first line of receivers. . . . .(anglerec) =   0.00


 C o n t r o l
 =============

     Read external initial field. . . . . .(initialfield) =      F
     Add Bielak conditions (add_Bielak_conditions_bottom) =      F
     Add Bielak conditions .(add_Bielak_conditions_right) =      F
     Add Bielak conditions . .(add_Bielak_conditions_top) =      F
     Add Bielak conditions. .(add_Bielak_conditions_left) =      F
     Attenuation in solid . . .(ATTENUATION_VISCOELASTIC) =      F
     Attenuation in fluid . . (ATTENUATION_VISCOACOUSTIC) =      F
     Save grid in ASCII file or not . (output_grid_ASCII) =      F
     Save a file with total energy or not.(OUTPUT_ENERGY) =      F


 C o n t r o l
 =============

     Vector display type . . . . . . . . .(imagetype_postscript) =      1
     Percentage of cut for vector plots. . . . . . . .(cutsnaps) =   1.00
     Subsampling of velocity model display. (subsamp_postscript) =      1


 I t e r a t i o n s
 ===================

     Number of time iterations . . . . .(NSTEP) =   12000
     Time step increment. . . . . . . . . .(DT) =   2.500000E-04
     Total simulation duration . . . . . (ttot) =   3.000000E+00


 reading mesh databases...


 -- Spectral Elements --


     Number of spectral elements . . . . . . . . .  (nspec) =  27000
     Number of control nodes per element . . . . . (ngnod) =      4
     Number of points in X-direction . . . . . . . (NGLLX) =      5
     Number of points in Y-direction . . . . . . . (NGLLZ) =      5
     Number of points per element. . . . . . (NGLLX*NGLLZ) =     25
     Number of points for display . . . . . . (pointsdisp) =      3
     Number of element material sets . . . . . . . (numat) =      1
     Number of acoustic forcing elements (nelem_acforcing) =      0
     Number of acoustic free surf (nelem_acoustic_surface) =      0


 M a t e r i a l   s e t s :   2 D  (p o r o) e l a s t i c i t y
 ======================================================

     Number of material sets . . . . . . (numat) =     1


     -------------------------------
     -- Acoustic (fluid) material --
     -------------------------------
     Material set number. . . . . . . . (jmat) =     1
     P-wave velocity. . . . . . . . . . . (cp) = 1.50000000E+03
     Mass density. . . . . . . . . . (density) = 1.00000000E+03
     Bulk modulus Kappa . . . . . . . .(kappa) = 2.25000000E+09
     QKappa_attenuation. . . . . . . .(QKappa) = 9.99900000E+03
     Qmu_attenuation. . . . . . . . . . .(Qmu) = 9.99900000E+03


 reading absorbing boundary...
   number of absorbing elements =          156

   any absorbing boundary flag  =  T
   PML boundary flag            =  T
   Stacey boundary flag         =  F


 Absorbing boundaries:
   using PML boundary conditions

 Setting up mesh

 Generating global mesh numbering (fast version)...

 Mesh numbering:
   Total number of elements:        27000

   Total number of acoustic elements           =        27000
   Total number of elastic/visco/poro elements =            0

 Approximate total number of grid points in the mesh
 (with a few duplicates coming from MPI buffers):       434692

 Approximate number of acoustic degrees of freedom in the mesh:       434692
 Approximate number of elastic degrees of freedom in the mesh:            0
   (there are 2 degrees of freedom per point for elastic elements)

 Approximate total number of degrees of freedom in the mesh
 (sum of the two values above):       434692

  (for simplicity viscoelastic or poroelastic elements, if any,
   are counted as elastic in the above three estimates;
   in reality they have more degrees of freedom)

 Mesh dimensions:
   Xmin,Xmax of the whole mesh =   -1000.0000000000000        1000.0000000000000
   Zmin,Zmax of the whole mesh =   -750.00000000000023        0.0000000000000000


 setup material arrays
 Domains:
   total number of acoustic elements        =        27000
   total number of elastic elements         =            0
   total number of poroelastic elements     =            0

 Setting up MPI communication arrays

   maximum number of MPI interfaces (for a single slice) =            2

   total MPI interface points:         2422

   checking acoustic interfaces:
   total number of global acoustic interface points:         2422
   total number of global points assembled by acoustic MPI interfaces:        2422
   interfaces okay

   master process:
   number of MPI interfaces in acoustic domain    =            2
   number of MPI interfaces in elastic domain     =            0
   number of MPI interfaces in poroelastic domain =            0

   number of outer elements  =          202
   number of inner elements  =         7694

   percentage of outer elements    2.55825806     %
   percentage of inner elements    97.4417419     %

   number of global nodes in outer elements  =         4050
   number of global nodes in inner elements  =       123813

   determining communication phases:
   acoustic domains:
   total number of outer/inner elements =          604       26396
   total percentage of outer elements    2.23703766     %
   total percentage of inner elements    97.7629623     %

 All mesh setup done successfully

 sources:
   Total number of sources:            2


   Setting parameters for source           1

     Source Type. . . . . . . . . . . . . . = Collocated Force
     Initial X-position (meters). . . . . . =   -8.0000000000E+02
     Initial Y-position (meters). . . . . . =   -1.0001000000E+02
     X-velocity (meters/second). . .  . . . =    4.0000000000E+02
     Z-velocity (meters/second). . .  . . . =   -1.0000000000E+02
     Fundamental frequency (Hz) . . . . . . =    3.0000000000E+01
     Time delay (s) . . . . . . . . . . . . =    0.0000000000E+00
     Multiplying factor . . . . . . . . . . =    1.0000000000E+05
     Angle from vertical direction (deg). . =    0.0000000000E+00



   Setting parameters for source           2

     Source Type. . . . . . . . . . . . . . = Collocated Force
     Initial X-position (meters). . . . . . =    8.0000000000E+02
     Initial Y-position (meters). . . . . . =   -1.0001000000E+02
     X-velocity (meters/second). . .  . . . =   -4.0000000000E+02
     Z-velocity (meters/second). . .  . . . =   -1.0000000000E+02
     Fundamental frequency (Hz) . . . . . . =    3.0000000000E+01
     Time delay (s) . . . . . . . . . . . . =    0.0000000000E+00
     Multiplying factor . . . . . . . . . . =    1.0000000000E+05
     Angle from vertical direction (deg). . =    0.0000000000E+00


   Source:            1
     Onset time. . . . . . =   -0.0000000000000000
     Fundamental period. . =    3.3333333333333333E-002
     Fundamental frequency =    30.000000000000000
     The onset time is ok

   Source:            2
     Onset time. . . . . . =   -0.0000000000000000
     Fundamental period. . =    3.3333333333333333E-002
     Fundamental frequency =    30.000000000000000
     The onset time is ok

 Source:            1
 Source:            2

 receivers:

 Total number of receivers =            8


 ********************
  locating receivers
 ********************

 reading receiver information from the ./DATA/STATIONS file


 Station #            1     AA      S0001
             original x:   -300.000000
             original z:   -110.000000
 Closest estimate found:    0.00000000      m away
  in element         6752
  in rank            0
  at xi,gamma coordinates =    1.5777218104420236E-029 -0.33333333333332860
 Distance from source:    500.099792      m


 Station #            2     AA      S0002
             original x:   -214.285721
             original z:   -110.000000
 Closest estimate found:    0.00000000      m away
  in element         6764
  in rank            0
  at xi,gamma coordinates =  -0.85714286100001025      -0.33333333333333243
 Distance from source:    585.799500      m


 Station #            3     AA      S0003
             original x:   -128.571426
             original z:   -110.000000
 Closest estimate found:    0.00000000      m away
  in element         6775
  in rank            0
  at xi,gamma coordinates =   0.28571427800001553      -0.33333333333332860
 Distance from source:    671.502869      m


 Station #            4     AA      S0004
             original x:   -42.8571434
             original z:   -110.000000
 Closest estimate found:    0.00000000      m away
  in element         6787
  in rank            0
  at xi,gamma coordinates =  -0.57142858299999599      -0.33333333333332860
 Distance from source:    757.208740      m


 Station #            5     AA      S0005
             original x:    42.8571434
             original z:   -110.000000
 Closest estimate found:    7.10542736E-15  m away
  in element         6638
  in rank            2
  at xi,gamma coordinates =   0.57142858300002852      -0.33333333333333243
 Distance from source:    842.916321      m


 Station #            6     AA      S0006
             original x:    128.571426
             original z:   -110.000000
 Closest estimate found:    0.00000000      m away
  in element         6650
  in rank            2
  at xi,gamma coordinates =  -0.28571427799998556      -0.33333333333332860
 Distance from source:    928.625183      m


 Station #            7     AA      S0007
             original x:    214.285721
             original z:   -110.000000
 Closest estimate found:    5.68434189E-14  m away
  in element         6661
  in rank            2
  at xi,gamma coordinates =   0.85714286099999948      -0.33333333333333626
 Distance from source:    1014.33490      m


 Station #            8     AA      S0008
             original x:    300.000000
             original z:   -110.000000
 Closest estimate found:    0.00000000      m away
  in element         6673
  in rank            2
  at xi,gamma coordinates =   -1.5777218104420236E-029 -0.33333333333332860
 Distance from source:    1100.04541      m


 end of receiver detection

 found a total of            8  receivers, this is okay


 preparing timerun...


 Preparing array allocations
   arrays for acoustic domains
   wavefield initialization
   done initialization

 Preparing PML
   rotate PML activated   : F
   backward reconstruction: F
   total number of PML spectral elements:         2184

   defining PML coefficients:
     using mesh dimension : xmin/xmax =   -1000.00000     /   1000.00000
                            zmin/zmax =   -750.000000     /   0.00000000
     thickness PML: left   =    22.2222214
                    right  =    22.2222214
                    bottom =    22.5000000
                    top    =    22.5000000
     maximum dominant frequency (sources):    40.9090919      (includes Doppler shift)
     PML coefficients all set


 Attenuation:
   viscoelastic  attenuation: F
   viscoacoustic attenuation: F

 Preparing mass matrices
   initializing mass matrices
   inverting mass matrices

 Preparing image coloring

 Checking mesh and stability

 ********
 Model: P (or PI) velocity min,max =    1500.0000000000000        1500.0000000000000
 Model: S velocity min,max         =    0.0000000000000000        0.0000000000000000
 Model: density min,max            =    1000.0000000000000        1000.0000000000000
 ********


 *********************************************
 *** Verification of simulation parameters ***
 *********************************************

 *** Max grid size =    7.5000000000001137
 *** Min grid size =    7.4074074074073906
 *** Max/min ratio =    1.0125000000000177

 *** Minimum GLL point distance  =    1.2790604788593407
 *** Average GLL point distance  =    1.8518518518518476

 *** Minimum period resolved     =    6.2500000000000940E-003
 *** Maximum frequency resolved  =    159.99999999999758      Hz

 *** Maximum suggested time step                 =    4.2635349295311358E-004
 *** Maximum suggested (Ricker) source frequency =    63.999999999999034

 *** for DT :    2.5000000000000001E-004
 *** Max CFL stability condition of the time scheme based on P wave velocity (must be below about 0.50 or so) =   0.29318394727857044

 ----
 Number of points per wavelength:
 ----
   Source            2
   maximum dominant source frequency =    75.000000000000000      Hz

   Nb pts / lambdaP_fmax min =    10.6666670
   Nb pts / lambdaP_fmax max =    10.6666670

   purely fluid regions

 -----------------------------------------

 histogram of min number of points per P wavelength in fluid regions:

 there are        27000  elements out of        27000  in fluid regions
   (i.e.,    100.000000     % of the total)

 (too small = poor resolution of calculations -
  too big = wasting memory and CPU time)
 (threshold value is around 4.5 points per S wavelength
  in elastic regions and 5.5 per P wavelength in fluid regions):

   10.5600004      -    10.5706663               0     0.00000000      %
   10.5706663      -    10.5813332               0     0.00000000      %
   10.5813332      -    10.5920000               0     0.00000000      %
   10.5920000      -    10.6026669               0     0.00000000      %
   10.6026669      -    10.6133337               0     0.00000000      %
   10.6133337      -    10.6239996               0     0.00000000      %
   10.6239996      -    10.6346664               0     0.00000000      %
   10.6346664      -    10.6453333               0     0.00000000      %
   10.6453333      -    10.6560001               0     0.00000000      %
   10.6560001      -    10.6666670           25380     94.0000000      %
   10.6666670      -    10.6773329            1620     6.00000000      %
   10.6773329      -    10.6879997               0     0.00000000      %
   10.6879997      -    10.6986666               0     0.00000000      %
   10.6986666      -    10.7093334               0     0.00000000      %
   10.7093334      -    10.7200003               0     0.00000000      %
   10.7200003      -    10.7306671               0     0.00000000      %
   10.7306671      -    10.7413330               0     0.00000000      %
   10.7413330      -    10.7519999               0     0.00000000      %
   10.7519999      -    10.7626667               0     0.00000000      %
   10.7626667      -    10.7733335               0     0.00000000      %

 total percentage =    100.00000000000000       %


 total number of elements in fluid and solid regions =        27000


 Preparing source time function
   time stepping scheme:   Newmark
   time stepping stages:            1
   time step size      :    2.50000012E-04

   number of time steps:        12000
   number of sources   :            2


 Preparing image coloring
   allocating color image arrays
   locating all the pixels of color images
   total number of image pixels =       463980
   done locating all the pixels of color images
   coloring image background based on vp

 done, preparation successful


 =========================================
 =  T i m e  e v o l u t i o n  l o o p  =
 =========================================


 Starting time iteration loop ...


 Your are using moving source capabilities. Please cite:
 Bottero (2018) Full-wave numerical simulation of T-waves and of moving acoustic sources
 PhD thesis
 https://tel.archives-ouvertes.fr/tel-01893011

 Note: subroutine compute_add_sources_acoustic_moving_sources can be greatly
 optimized. See what is done in init_moving_sources (in moving_sources_par.f90).
 This is easy to do and would probably greatly improve the computational time



 ******************************************************************
Time step number       5   t =    0.0010 s out of   12000
 ******************************************************************
 We have done    3.33361104E-02 % of the total
 Max absolute value of scalar field in fluid (acoustic) =    11.2900238
 Elapsed time in seconds =    4.6999931335449219E-002
 Elapsed time in hh:mm:ss =      0 h 00 m 00 s
 Mean elapsed time per time step in seconds =    9.3999862670898441E-003
 Time steps remaining =        11995
 Estimated remaining time in seconds =    112.75283527374268
 Estimated remaining time in hh:mm:ss =      0 h 01 m 52 s
 Estimated total run time in seconds =    112.79983520507812
 Estimated total run time in hh:mm:ss =      0 h 01 m 52 s
 The run will finish approximately on: Mon Jun 29, 2020 15:41

 Creating color image of size         1110  x          440  for time step            5
 drawing scalar image of the forward wavefield pressure...
 Color image maximum amplitude =    21.689186096191406
 Color image created


 ******************************************************************
Time step number    1000   t =    0.2497 s out of   12000
 ******************************************************************
 We have done    8.32569408     % of the total
 Max absolute value of scalar field in fluid (acoustic) =    462.662872
 Elapsed time in seconds =    8.3090000152587891
 Elapsed time in hh:mm:ss =      0 h 00 m 08 s
 Mean elapsed time per time step in seconds =    8.3090000152587894E-003
 Time steps remaining =        11000
 Estimated remaining time in seconds =    91.399000167846680
 Estimated remaining time in hh:mm:ss =      0 h 01 m 31 s
 Estimated total run time in seconds =    99.708000183105469
 Estimated total run time in hh:mm:ss =      0 h 01 m 39 s
 The run will finish approximately on: Mon Jun 29, 2020 15:41

 Creating color image of size         1110  x          440  for time step         1000
 drawing scalar image of the forward wavefield pressure...
 Color image maximum amplitude =    439.89465332031250
 Color image created


 ******************************************************************
Time step number    2000   t =    0.4998 s out of   12000
 ******************************************************************
 We have done    16.6597214     % of the total
 Max absolute value of scalar field in fluid (acoustic) =    507.778015
 Elapsed time in seconds =    16.868000030517578
 Elapsed time in hh:mm:ss =      0 h 00 m 16 s
 Mean elapsed time per time step in seconds =    8.4340000152587895E-003
 Time steps remaining =        10000
 Estimated remaining time in seconds =    84.340000152587891
 Estimated remaining time in hh:mm:ss =      0 h 01 m 24 s
 Estimated total run time in seconds =    101.20800018310547
 Estimated total run time in hh:mm:ss =      0 h 01 m 41 s
 The run will finish approximately on: Mon Jun 29, 2020 15:41

 Creating color image of size         1110  x          440  for time step         2000
 drawing scalar image of the forward wavefield pressure...
 Color image maximum amplitude =    441.14642333984375
 Color image created


 ******************************************************************
Time step number    3000   t =    0.7498 s out of   12000
 ******************************************************************
 We have done    24.9937496     % of the total
 Max absolute value of scalar field in fluid (acoustic) =    458.079102
 Elapsed time in seconds =    25.565999984741211
 Elapsed time in hh:mm:ss =      0 h 00 m 25 s
 Mean elapsed time per time step in seconds =    8.5219999949137371E-003
 Time steps remaining =         9000
 Estimated remaining time in seconds =    76.697999954223633
 Estimated remaining time in hh:mm:ss =      0 h 01 m 16 s
 Estimated total run time in seconds =    102.26399993896484
 Estimated total run time in hh:mm:ss =      0 h 01 m 42 s
 The run will finish approximately on: Mon Jun 29, 2020 15:41

 Creating color image of size         1110  x          440  for time step         3000
 drawing scalar image of the forward wavefield pressure...
 Color image maximum amplitude =    435.42831420898438
 Color image created


 ******************************************************************
Time step number    4000   t =    0.9998 s out of   12000
 ******************************************************************
 We have done    33.3277779     % of the total
 Max absolute value of scalar field in fluid (acoustic) =    477.308594
 Elapsed time in seconds =    34.453999996185303
 Elapsed time in hh:mm:ss =      0 h 00 m 34 s
 Mean elapsed time per time step in seconds =    8.6134999990463250E-003
 Time steps remaining =         8000
 Estimated remaining time in seconds =    68.907999992370605
 Estimated remaining time in hh:mm:ss =      0 h 01 m 08 s
 Estimated total run time in seconds =    103.36199998855591
 Estimated total run time in hh:mm:ss =      0 h 01 m 43 s
 The run will finish approximately on: Mon Jun 29, 2020 15:41

 Creating color image of size         1110  x          440  for time step         4000
 drawing scalar image of the forward wavefield pressure...
 Color image maximum amplitude =    447.55395507812500
 Color image created


 ******************************************************************
Time step number    5000   t =    1.2497 s out of   12000
 ******************************************************************
 We have done    41.6618042     % of the total
 Max absolute value of scalar field in fluid (acoustic) =    465.234039
 Elapsed time in seconds =    44.256999969482422
 Elapsed time in hh:mm:ss =      0 h 00 m 44 s
 Mean elapsed time per time step in seconds =    8.8513999938964836E-003
 Time steps remaining =         7000
 Estimated remaining time in seconds =    61.959799957275386
 Estimated remaining time in hh:mm:ss =      0 h 01 m 01 s
 Estimated total run time in seconds =    106.21679992675780
 Estimated total run time in hh:mm:ss =      0 h 01 m 46 s
 The run will finish approximately on: Mon Jun 29, 2020 15:41

 Creating color image of size         1110  x          440  for time step         5000
 drawing scalar image of the forward wavefield pressure...
 Color image maximum amplitude =    442.24539184570312
 Color image created


 ******************************************************************
Time step number    6000   t =    1.4998 s out of   12000
 ******************************************************************
 We have done    49.9958344     % of the total
 Max absolute value of scalar field in fluid (acoustic) =    497.330017
 Elapsed time in seconds =    53.334000110626221
 Elapsed time in hh:mm:ss =      0 h 00 m 53 s
 Mean elapsed time per time step in seconds =    8.8890000184377038E-003
 Time steps remaining =         6000
 Estimated remaining time in seconds =    53.334000110626221
 Estimated remaining time in hh:mm:ss =      0 h 00 m 53 s
 Estimated total run time in seconds =    106.66800022125244
 Estimated total run time in hh:mm:ss =      0 h 01 m 46 s
 The run will finish approximately on: Mon Jun 29, 2020 15:41

 Creating color image of size         1110  x          440  for time step         6000
 drawing scalar image of the forward wavefield pressure...
 Color image maximum amplitude =    455.38070678710938
 Color image created


 ******************************************************************
Time step number    7000   t =    1.7498 s out of   12000
 ******************************************************************
 We have done    58.3298607     % of the total
 Max absolute value of scalar field in fluid (acoustic) =    418.410065
 Elapsed time in seconds =    62.542999982833862
 Elapsed time in hh:mm:ss =      0 h 01 m 02 s
 Mean elapsed time per time step in seconds =    8.9347142832619797E-003
 Time steps remaining =         5000
 Estimated remaining time in seconds =    44.673571416309898
 Estimated remaining time in hh:mm:ss =      0 h 00 m 44 s
 Estimated total run time in seconds =    107.21657139914376
 Estimated total run time in hh:mm:ss =      0 h 01 m 47 s
 The run will finish approximately on: Mon Jun 29, 2020 15:41

 Creating color image of size         1110  x          440  for time step         7000
 drawing scalar image of the forward wavefield pressure...
 Color image maximum amplitude =    414.95404052734375
 Color image created


 ******************************************************************
Time step number    8000   t =    1.9998 s out of   12000
 ******************************************************************
 We have done    66.6638870     % of the total
 Max absolute value of scalar field in fluid (acoustic) =    1021.04926
 Elapsed time in seconds =    71.605999946594238
 Elapsed time in hh:mm:ss =      0 h 01 m 11 s
 Mean elapsed time per time step in seconds =    8.9507499933242796E-003
 Time steps remaining =         4000
 Estimated remaining time in seconds =    35.802999973297119
 Estimated remaining time in hh:mm:ss =      0 h 00 m 35 s
 Estimated total run time in seconds =    107.40899991989136
 Estimated total run time in hh:mm:ss =      0 h 01 m 47 s
 The run will finish approximately on: Mon Jun 29, 2020 15:41

 Creating color image of size         1110  x          440  for time step         8000
 drawing scalar image of the forward wavefield pressure...
 Color image maximum amplitude =    869.01818847656250
 Color image created


 ******************************************************************
Time step number    9000   t =    2.2498 s out of   12000
 ******************************************************************
 We have done    74.9979172     % of the total
 Max absolute value of scalar field in fluid (acoustic) =    516.319275
 Elapsed time in seconds =    80.717999935150146
 Elapsed time in hh:mm:ss =      0 h 01 m 20 s
 Mean elapsed time per time step in seconds =    8.9686666594611282E-003
 Time steps remaining =         3000
 Estimated remaining time in seconds =    26.905999978383385
 Estimated remaining time in hh:mm:ss =      0 h 00 m 26 s
 Estimated total run time in seconds =    107.62399991353354
 Estimated total run time in hh:mm:ss =      0 h 01 m 47 s
 The run will finish approximately on: Mon Jun 29, 2020 15:41

 Creating color image of size         1110  x          440  for time step         9000
 drawing scalar image of the forward wavefield pressure...
 Color image maximum amplitude =    493.69204711914062
 Color image created


 ******************************************************************
Time step number   10000   t =    2.4998 s out of   12000
 ******************************************************************
 We have done    83.3319473     % of the total
 Max absolute value of scalar field in fluid (acoustic) =    485.472137
 Elapsed time in seconds =    90.450000047683716
 Elapsed time in hh:mm:ss =      0 h 01 m 30 s
 Mean elapsed time per time step in seconds =    9.0450000047683724E-003
 Time steps remaining =         2000
 Estimated remaining time in seconds =    18.090000009536745
 Estimated remaining time in hh:mm:ss =      0 h 00 m 18 s
 Estimated total run time in seconds =    108.54000005722045
 Estimated total run time in hh:mm:ss =      0 h 01 m 48 s
 The run will finish approximately on: Mon Jun 29, 2020 15:41

 Creating color image of size         1110  x          440  for time step        10000
 drawing scalar image of the forward wavefield pressure...
 Color image maximum amplitude =    448.23983764648438
 Color image created


 ******************************************************************
Time step number   11000   t =    2.7498 s out of   12000
 ******************************************************************
 We have done    91.6659698     % of the total
 Max absolute value of scalar field in fluid (acoustic) =    452.120483
 Elapsed time in seconds =    100.20099997520447
 Elapsed time in hh:mm:ss =      0 h 01 m 40 s
 Mean elapsed time per time step in seconds =    9.1091818159276788E-003
 Time steps remaining =         1000
 Estimated remaining time in seconds =    9.1091818159276787
 Estimated remaining time in hh:mm:ss =      0 h 00 m 09 s
 Estimated total run time in seconds =    109.31018179113215
 Estimated total run time in hh:mm:ss =      0 h 01 m 49 s
 The run will finish approximately on: Mon Jun 29, 2020 15:41

 Creating color image of size         1110  x          440  for time step        11000
 drawing scalar image of the forward wavefield pressure...
 Color image maximum amplitude =    419.84100341796875
 Color image created


 ******************************************************************
Time step number   12000   t =    2.9998 s out of   12000
 ******************************************************************
 We have done    100.000000     % of the total
 Max absolute value of scalar field in fluid (acoustic) =    442.075012
 Elapsed time in seconds =    109.63299989700317
 Elapsed time in hh:mm:ss =      0 h 01 m 49 s
 Mean elapsed time per time step in seconds =    9.1360833247502646E-003
 Time steps remaining =            0
 Estimated remaining time in seconds =    0.0000000000000000
 Estimated remaining time in hh:mm:ss =      0 h 00 m 00 s
 Estimated total run time in seconds =    109.63299989700317
 Estimated total run time in hh:mm:ss =      0 h 01 m 49 s


 Total number of time steps written:        12000
 Writing the seismograms by master proc alone took   0.242578000      seconds

 Creating color image of size         1110  x          440  for time step        12000
 drawing scalar image of the forward wavefield pressure...
 Color image maximum amplitude =    413.54995727539062
 Color image created


 Total duration of the time loop in seconds =    109.939056      s
 Total number of time steps =        12000
 Average duration of a time step of the time loop =    9.16158780E-03  s
 Total number of spectral elements in the mesh =         7896
     of which         7426  are regular elements
     and          470  are PML elements.
 Average duration of the calculation per spectral element =    1.16028218E-06  s


 Total duration of the timeloop in seconds, measured using
 date and time of the system :    109.939003      s


 -------------------------------------------------------------------------------
 -------------------------------------------------------------------------------
 Program SPECFEM2D:
 -------------------------------------------------------------------------------
 -------------------------------------------------------------------------------
 Example of simulation with moving sources
 -------------------------------------------------------------------------------
 -------------------------------------------------------------------------------
 D a t e : 29 - 06 - 2020                                 T i m e  : 15:41:01
 -------------------------------------------------------------------------------
 -------------------------------------------------------------------------------

see results in directory: OUTPUT_FILES/

done
Mon Jun 29 15:41:02 CEST 2020
