running example: Sat Feb  9 23:19:43 AST 2019

running forward simulation (with saving forward wavefield)

Changed simulation_type to 1 and save_forward = .true. in Par_file 
running example: Sat Feb  9 23:19:43 AST 2019

setting up example...

cleaning OUTPUT_FILES/

running mesher...


 **********************************************
 *** Specfem 2-D Mesher - MPI version       ***
 **********************************************

 Running Git version of the code corresponding to undefined in the case of old tar ball builds
 dating undefined in the case of old tar ball builds

 Reading the parameter file...

 Title of the simulation: Tromp-Tape-Liu (GJI 2005)


 Receiver lines:
   Nb of line sets =            1

 Materials:
   Nb of solid, fluid or porous materials =            1

 --------
 Material #           1  isotropic
 rho,cp,cs   =    2600.0000000000000        5800.0000000000000        3198.5999999999999     
 Qkappa, Qmu =    10.000000000000000        10.000000000000000     
 Material is solid
 --------

 Mesh from internal meshing:

 Reading interface data from file: ./DATA/./interfaces_Tromp2005.dat                                                                                                                                                                                                                                                                                                                                                                                                                                                                                               
 Reading            2  points for interface            1
 Reading            2  points for interface            2

 Total number of layers in z direction =            1
 There are           32  spectral elements along Z in layer            1

 Total number of spectral elements along X =           80
 Total number of spectral elements along Z =           32

 Regions:
   Nb of regions in the mesh =            1

 ------
 Region            1
 IX from            1  to           80
 IZ from            1  to           32
 Material #            1  isotropic
 Material is solid
 vp     =    5800.00000    
 vs     =    3198.60010    
 rho    =    2600.00000    
 Poisson's ratio =   0.281471640    
 QKappa =    10.0000000    
 Qmu    =    10.0000000    
 ------
 Total number of spectral elements         =         2560


 Parameter file successfully read 

 The mesh contains         2560  elements

 Control elements have            4  nodes

 Source           1
   Position xs, zs =    50000.000000000000        40000.000000000000     

   Source type (1=force, 2=moment tensor, 3=Rayleigh wave, 4=plane incident P, 5=plane incident S):            1
   Force source:
   Angle of the source (deg) =    4.7123889803846897     
   Multiplying factor  =    7500000000.0000000     

   Time function type (1=Ricker, 2=First derivative, 3=Gaussian, 4=Dirac, 5=Heaviside, 8=Read from file, 9=burst):           2
   Ricker wavelet (first-derivative):
   Frequency, delay =   0.41999999999999998        0.0000000000000000     

 Reading interface data from file: ./DATA/./interfaces_Tromp2005.dat

 Mesh dimensions: 
   Min and max value of X in the grid =    0.0000000000000000        200000.00000000000     
   Min and max value of Z in the grid =    0.0000000000000000        80000.000000000000     

 nedges_coupled (acoustic/elastic)     =            0
 nedges_coupled (acoustic/poroelastic) =            0
 nedges_coupled (poroelastic/elastic)  =            0

 slice            0  has number of spectral elements =        2560

 Position (x,z) of the source =    50000.000000000000        40000.000000000000     


 writing the ./DATA/STATIONS file


 There are            1  receivers

 Target positions (x,z) of the            1  receivers

 Receiver            1  =    150000.00000000000        40000.000000000000     

 This will be a serial simulation


running solver...


 **********************************************
 **** Specfem 2-D Solver - MPI version     ****
 **********************************************

 Running Git version of the code corresponding to undefined in the case of old tar ball builds
 dating undefined in the case of old tar ball builds

 There are            1  MPI processes
 Processes are numbered from 0 to            0

 There is a total of            1  slices


 NDIM =            2

 NGLLX =            5
 NGLLZ =            5

 using single precision for the calculations

 smallest and largest possible floating-point numbers are:    1.17549435E-38   3.40282347E+38


 -------------------------------------------------------------------------------
 -------------------------------------------------------------------------------
 Program SPECFEM2D: 
 -------------------------------------------------------------------------------
 -------------------------------------------------------------------------------
 Tromp-Tape-Liu (GJI 2005)
 -------------------------------------------------------------------------------
 -------------------------------------------------------------------------------
 D a t e : 09 - 02 - 2019                                 T i m e  : 23:19:43
 -------------------------------------------------------------------------------
 -------------------------------------------------------------------------------


 C o n t r o l
 =============

     Number of spectral element control nodes. . .(npgeo) =    2673
     Number of space dimensions. . . . . . . . . . (NDIM) =       2


 C o n t r o l
 =============

     Display frequency . . . .(NSTEP_BETWEEN_OUTPUT_INFO) =    400
     Color display . . . . . . . . . . . . . . . (colors) =      1
      == 0     black and white display              
      == 1     color display                        
     Numbered mesh . . . . . . . . . . . . . . .(numbers) =      0
      == 0     do not number the mesh               
      == 1     number the mesh                      


 C o n t r o l
 =============

     Seismograms recording type . . . . . . .(seismotype) = 1
     Angle for first line of receivers. . . . .(anglerec) =   0.00


 C o n t r o l
 =============

     Read external initial field. . . . . .(initialfield) =      F
     Add Bielak conditions (add_Bielak_conditions_bottom) =      F
     Add Bielak conditions .(add_Bielak_conditions_right) =      F
     Add Bielak conditions . .(add_Bielak_conditions_top) =      F
     Add Bielak conditions. .(add_Bielak_conditions_left) =      F
     Attenuation in solid . . .(ATTENUATION_VISCOELASTIC) =      F
     Attenuation in fluid . . (ATTENUATION_VISCOACOUSTIC) =      F
     Save grid in ASCII file or not . (output_grid_ASCII) =      F
     Save a file with total energy or not.(OUTPUT_ENERGY) =      F


 C o n t r o l
 =============

     Vector display type . . . . . . . . .(imagetype_postscript) =      1
     Percentage of cut for vector plots. . . . . . . .(cutsnaps) =   1.00
     Subsampling of velocity model display. (subsamp_postscript) =      1


 I t e r a t i o n s 
 ===================

     Number of time iterations . . . . .(NSTEP) =    3000
     Time step increment. . . . . . . . . .(DT) =   2.000000E-02
     Total simulation duration . . . . . (ttot) =   6.000000E+01


     Source Type. . . . . . . . . . . . . . = Collocated Force
     X-position (meters). . . . . . . . . . =    5.0000000000E+04
     Y-position (meters). . . . . . . . . . =    4.0000000000E+04
     Fundamental frequency (Hz) . . . . . . =    4.2000000000E-01
     Time delay (s) . . . . . . . . . . . . =    0.0000000000E+00
     Multiplying factor . . . . . . . . . . =    7.5000000000E+09
     Angle from vertical direction (deg). . =    4.7123889804E+00


     using USER_T0 . . . . . . . . . =    8.0000000000000000     
       original t0 . . . . . . . . . =    2.8571428571428572     
       min_tshift_src_original . . . =    0.0000000000000000     

     fix new simulation start time . =   -8.0000000000000000     
     source            1 uses tshift =    0.0000000000000000     

     Onset time. . . . . . =   -8.0000000000000000     
     Fundamental period. . =    2.3809523809523809     
     Fundamental frequency =   0.41999999999999998     
     The onset time is ok

     -- Spectral Elements --


     Number of spectral elements . . . . . . . . .  (nspec) =   2560
     Number of control nodes per element . . . . . (ngnod) =      4
     Number of points in X-direction . . . . . . . (NGLLX) =      5
     Number of points in Y-direction . . . . . . . (NGLLZ) =      5
     Number of points per element. . . . . . (NGLLX*NGLLZ) =     25
     Number of points for display . . . . . . (pointsdisp) =      6
     Number of element material sets . . . . . . . (numat) =      1
     Number of acoustic forcing elements (nelem_acforcing) =      0
     Number of acoustic free surf (nelem_acoustic_surface) =      0


 M a t e r i a l   s e t s :   2 D  (p o r o) e l a s t i c i t y
 ======================================================

     Number of material sets . . . . . . (numat) =     1


     ----------------------------------------
     -- Elastic (solid) isotropic material --
     ----------------------------------------
     Material set number. . . . . . . . (jmat) =     1
     P-wave velocity. . . . . . . . . . . (cp) = 5.80000000E+03
     S-wave velocity. . . . . . . . . . . (cs) = 3.19860000E+03
     Mass density. . . . . . . . . . (density) = 2.60000000E+03
     Poisson's ratio. . . . . . . . .(poisson) = 2.81471650E-01
     First Lame parameter Lambda. . . (lambda) = 3.42625818E+10
     Second Lame parameter Mu. . . . . . .(mu) = 2.66007091E+10
     Bulk modulus Kappa . . . . . . . .(kappa) = 6.08632909E+10
     Young's modulus E. . . . . . . . .(young) = 6.96544755E+10
     QKappa_attenuation .  . . . . . .(QKappa) = 1.00000000E+01
     Qmu_attenuation . . . . . . . . . . (Qmu) = 1.00000000E+01

 Absorbing boundaries:
   using Stacey absorbing boundary conditions

 Number of absorbing elements:          144
   nspec_left   =           32
   nspec_right  =           32
   nspec_bottom =           80
   nspec_top    =            0


 Setting up mesh

 Generating global mesh numbering (fast version)...

 Mesh numbering:
   Total number of elements:         2560

   Total number of acoustic elements           =            0
   Total number of elastic/visco/poro elements =         2560

 Approximate total number of grid points in the mesh
 (with a few duplicates coming from MPI buffers):        41409

 Approximate number of acoustic degrees of freedom in the mesh:            0
 Approximate number of elastic degrees of freedom in the mesh:        82818
   (there are 2 degrees of freedom per point for elastic elements)

 Approximate total number of degrees of freedom in the mesh
 (sum of the two values above):        82818

  (for simplicity viscoelastic or poroelastic elements, if any,
   are counted as elastic in the above three estimates;
   in reality they have more degrees of freedom)

 Mesh dimensions:
   Xmin,Xmax of the whole mesh =    0.0000000000000000        200000.00000000003     
   Zmin,Zmax of the whole mesh =    0.0000000000000000        80000.000000000000     

 Domains:
   total number of acoustic elements        =            0
   total number of elastic elements         =         2560
   total number of poroelastic elements     =            0

 Setting up MPI communication arrays

   maximum number of MPI interfaces (for a single slice) =            0

   This is a single process simulation, no need for MPI communication

   number of outer elements  =            0
   number of inner elements  =         2560

   percentage of outer elements    0.00000000     %
   percentage of inner elements    100.000000     %

   number of global nodes in outer elements  =            0
   number of global nodes in inner elements  =        41409

   determining communication phases:
   elastic domains:
   total number of outer/inner elements =            0        2560
   total percentage of outer elements    0.00000000     %
   total percentage of inner elements    100.000000     %

 All mesh setup done successfully

 sources:

 *******************************
  locating force source
 *******************************


 Force source:
             original x:    50000.0000    
             original z:    40000.0000    
 Closest estimate found:    0.00000000      m away
  in rank            0
  in element         1220
  in elastic domain
  at xi,gamma coordinates =    1.0000000000000000        1.0000000000000000     


 end of force source detection


 receivers:

 Total number of receivers =            1


 ********************
  locating receivers
 ********************

 reading receiver information from the ./DATA/STATIONS file


 Station #            1     AA      S0001                           
             original x:    150000.000    
             original z:    40000.0000    
 Closest estimate found:    0.00000000      m away
  in element         1260
  in rank            0
  at xi,gamma coordinates =    1.0000000000000000        1.0000000000000000     
 Distance from source:    100000.000      m


 end of receiver detection

 found a total of            1  receivers, this is okay


 Preparing array allocations
   arrays for elastic domains
   wavefield initialization
   done initialization

 Preparing mass matrices
   initializing mass matrices
   inverting mass matrices

 Preparing image coloring

 Checking mesh and stability

 ********
 Model: P (or PI) velocity min,max =    5800.0000000000000        5800.0000000000000     
 Model: S velocity min,max         =    3198.6000000000004        3198.6000000000004     
 Model: density min,max            =    2600.0000000000000        2600.0000000000000     
 ********


 *********************************************
 *** Verification of simulation parameters ***
 *********************************************

 *** Max grid size =    2500.0000000000000     
 *** Min grid size =    2500.0000000000000     
 *** Max/min ratio =    1.0000000000000000     

 *** Minimum GLL point distance  =    431.68291161502850     
 *** Average GLL point distance  =    625.00000000000000     

 *** Minimum period resolved     =   0.97698993309572923     
 *** Maximum frequency resolved  =    1.0235520000000002      Hz

 *** Maximum suggested time step                 =    3.7214044104743833E-002
 *** Maximum suggested (Ricker) source frequency =   0.40942080000000014     

 *** for DT :    2.0000000000000000E-002
 *** Max CFL stability condition of the time scheme based on P wave velocity (must be below about 0.50 or so) =   0.26871575612297555     

 ----
 Number of points per wavelength:
 ----
   Source            1
   maximum dominant source frequency =    1.0500000000000000      Hz

   Nb pts / lambdaP_fmax min =    8.83809566    
   Nb pts / lambdaP_fmax max =    8.83809566    

   Nb pts / lambdaS_fmax min =    4.87405729    
   Nb pts / lambdaS_fmax max =    4.87405729    

 -----------------------------------------

 histogram of min number of points per S wavelength in solid regions:

 there are         2560  elements out of         2560  in solid regions
   (i.e.,    100.000000     % of the total)

 (too small = poor resolution of calculations -
  too big = wasting memory and CPU time)
 (threshold value is around 4.5 points per S wavelength
  in elastic regions and 5.5 per P wavelength in fluid regions):

   4.82531643      -    4.83019066               0     0.00000000      %
   4.83019066      -    4.83506489               0     0.00000000      %
   4.83506489      -    4.83993864               0     0.00000000      %
   4.83993864      -    4.84481287               0     0.00000000      %
   4.84481287      -    4.84968662               0     0.00000000      %
   4.84968662      -    4.85456085               0     0.00000000      %
   4.85456085      -    4.85943508               0     0.00000000      %
   4.85943508      -    4.86430883               0     0.00000000      %
   4.86430883      -    4.86918306               0     0.00000000      %
   4.86918306      -    4.87405729               0     0.00000000      %
   4.87405729      -    4.87893105            2560     100.000000      %
   4.87893105      -    4.88380527               0     0.00000000      %
   4.88380527      -    4.88867950               0     0.00000000      %
   4.88867950      -    4.89355326               0     0.00000000      %
   4.89355326      -    4.89842749               0     0.00000000      %
   4.89842749      -    4.90330172               0     0.00000000      %
   4.90330172      -    4.90817547               0     0.00000000      %
   4.90817547      -    4.91304970               0     0.00000000      %
   4.91304970      -    4.91792345               0     0.00000000      %
   4.91792345      -    4.92279768               0     0.00000000      %

 total percentage =    100.00000000000000       %


 total number of elements in fluid and solid regions =         2560


 Preparing source time function
   saving the source time function in a text file...

 Preparing material arrays

 Preparing image coloring
   allocating color image arrays
   locating all the pixels of color images
   total number of image pixels =        17765
   done locating all the pixels of color images
   coloring image background based on vp

 done, preparation successful


 =========================================
 =  T i m e  e v o l u t i o n  l o o p  =
 =========================================


 Starting time iteration loop ...


 ******************************************************************
Time step number       5   t =    0.0800 s out of    3000
 ******************************************************************
 We have done   0.133377790     % of the total
 Max norm of vector field in solid (elastic) =    0.00000000    
 Elapsed time in seconds =    1.2000083923339844E-002
 Elapsed time in hh:mm:ss =      0 h 00 m 00 s
 Mean elapsed time per time step in seconds =    2.4000167846679687E-003
 Time steps remaining =         2995
 Estimated remaining time in seconds =    7.1880502700805664     
 Estimated remaining time in hh:mm:ss =      0 h 00 m 07 s
 Estimated total run time in seconds =    7.2000503540039062     
 Estimated total run time in hh:mm:ss =      0 h 00 m 07 s
 The run will finish approximately on: Sat Feb 09, 2019 23:20


 Creating color image of size          210  x           90  for time step            5
 drawing scalar image of the forward wavefield displacement...
 Color image maximum amplitude =    0.0000000000000000     
 Color image created

 Creating color image of size          210  x           90  for time step          100
 drawing scalar image of the forward wavefield displacement...
 Color image maximum amplitude =    3.1597012529217379E-030
 Color image created

 Creating color image of size          210  x           90  for time step          200
 drawing scalar image of the forward wavefield displacement...
 Color image maximum amplitude =    7.9707046473739316E-015
 Color image created

 Creating color image of size          210  x           90  for time step          300
 drawing scalar image of the forward wavefield displacement...
 Color image maximum amplitude =    1.8001194148923225E-005
 Color image created

 ******************************************************************
Time step number     400   t =    7.9800 s out of    3000
 ******************************************************************
 We have done    13.3044348     % of the total
 Max norm of vector field in solid (elastic) =    2.35748831E-02
 Elapsed time in seconds =   0.94799995422363281     
 Elapsed time in hh:mm:ss =      0 h 00 m 00 s
 Mean elapsed time per time step in seconds =    2.3699998855590820E-003
 Time steps remaining =         2600
 Estimated remaining time in seconds =    6.1619997024536133     
 Estimated remaining time in hh:mm:ss =      0 h 00 m 06 s
 Estimated total run time in seconds =    7.1099996566772461     
 Estimated total run time in hh:mm:ss =      0 h 00 m 07 s
 The run will finish approximately on: Sat Feb 09, 2019 23:20


 Creating color image of size          210  x           90  for time step          400
 drawing scalar image of the forward wavefield displacement...
 Color image maximum amplitude =    1.9087344461241738E-002
 Color image created

 Creating color image of size          210  x           90  for time step          500
 drawing scalar image of the forward wavefield displacement...
 Color image maximum amplitude =    9.4899033223300316E-003
 Color image created

 Creating color image of size          210  x           90  for time step          600
 drawing scalar image of the forward wavefield displacement...
 Color image maximum amplitude =    7.7797600163430625E-003
 Color image created

 Creating color image of size          210  x           90  for time step          700
 drawing scalar image of the forward wavefield displacement...
 Color image maximum amplitude =    6.6985858812243920E-003
 Color image created

 ******************************************************************
Time step number     800   t =   15.9800 s out of    3000
 ******************************************************************
 We have done    26.6422138     % of the total
 Max norm of vector field in solid (elastic) =    5.87902125E-03
 Elapsed time in seconds =    1.8949999809265137     
 Elapsed time in hh:mm:ss =      0 h 00 m 01 s
 Mean elapsed time per time step in seconds =    2.3687499761581420E-003
 Time steps remaining =         2200
 Estimated remaining time in seconds =    5.2112499475479126     
 Estimated remaining time in hh:mm:ss =      0 h 00 m 05 s
 Estimated total run time in seconds =    7.1062499284744263     
 Estimated total run time in hh:mm:ss =      0 h 00 m 07 s
 The run will finish approximately on: Sat Feb 09, 2019 23:20


 Creating color image of size          210  x           90  for time step          800
 drawing scalar image of the forward wavefield displacement...
 Color image maximum amplitude =    5.8582165791042926E-003
 Color image created

 Creating color image of size          210  x           90  for time step          900
 drawing scalar image of the forward wavefield displacement...
 Color image maximum amplitude =    5.2194199258096602E-003
 Color image created

 Creating color image of size          210  x           90  for time step         1000
 drawing scalar image of the forward wavefield displacement...
 Color image maximum amplitude =    7.9188823761649225E-003
 Color image created

 Creating color image of size          210  x           90  for time step         1100
 drawing scalar image of the forward wavefield displacement...
 Color image maximum amplitude =    7.3655018463902070E-003
 Color image created

 ******************************************************************
Time step number    1200   t =   23.9800 s out of    3000
 ******************************************************************
 We have done    39.9799919     % of the total
 Max norm of vector field in solid (elastic) =    5.64937945E-03
 Elapsed time in seconds =    2.8180000782012939     
 Elapsed time in hh:mm:ss =      0 h 00 m 02 s
 Mean elapsed time per time step in seconds =    2.3483333985010782E-003
 Time steps remaining =         1800
 Estimated remaining time in seconds =    4.2270001173019409     
 Estimated remaining time in hh:mm:ss =      0 h 00 m 04 s
 Estimated total run time in seconds =    7.0450001955032349     
 Estimated total run time in hh:mm:ss =      0 h 00 m 07 s
 The run will finish approximately on: Sat Feb 09, 2019 23:20


 Creating color image of size          210  x           90  for time step         1200
 drawing scalar image of the forward wavefield displacement...
 Color image maximum amplitude =    5.6491269464255377E-003
 Color image created

 Creating color image of size          210  x           90  for time step         1300
 drawing scalar image of the forward wavefield displacement...
 Color image maximum amplitude =    4.1738359730179144E-003
 Color image created

 Creating color image of size          210  x           90  for time step         1400
 drawing scalar image of the forward wavefield displacement...
 Color image maximum amplitude =    4.1062008617910517E-003
 Color image created

 Creating color image of size          210  x           90  for time step         1500
 drawing scalar image of the forward wavefield displacement...
 Color image maximum amplitude =    3.5312616170125673E-003
 Color image created

 ******************************************************************
Time step number    1600   t =   31.9800 s out of    3000
 ******************************************************************
 We have done    53.3177719     % of the total
 Max norm of vector field in solid (elastic) =    3.38317128E-03
 Elapsed time in seconds =    3.7430000305175781     
 Elapsed time in hh:mm:ss =      0 h 00 m 03 s
 Mean elapsed time per time step in seconds =    2.3393750190734862E-003
 Time steps remaining =         1400
 Estimated remaining time in seconds =    3.2751250267028804     
 Estimated remaining time in hh:mm:ss =      0 h 00 m 03 s
 Estimated total run time in seconds =    7.0181250572204590     
 Estimated total run time in hh:mm:ss =      0 h 00 m 07 s
 The run will finish approximately on: Sat Feb 09, 2019 23:20


 Creating color image of size          210  x           90  for time step         1600
 drawing scalar image of the forward wavefield displacement...
 Color image maximum amplitude =    3.3841709300085321E-003
 Color image created

 Creating color image of size          210  x           90  for time step         1700
 drawing scalar image of the forward wavefield displacement...
 Color image maximum amplitude =    3.2942606102944992E-003
 Color image created

 Creating color image of size          210  x           90  for time step         1800
 drawing scalar image of the forward wavefield displacement...
 Color image maximum amplitude =    3.1740459352180509E-003
 Color image created

 Creating color image of size          210  x           90  for time step         1900
 drawing scalar image of the forward wavefield displacement...
 Color image maximum amplitude =    2.9623422265511699E-003
 Color image created

 ******************************************************************
Time step number    2000   t =   39.9800 s out of    3000
 ******************************************************************
 We have done    66.6555481     % of the total
 Max norm of vector field in solid (elastic) =    2.95987143E-03
 Elapsed time in seconds =    4.7079999446868896     
 Elapsed time in hh:mm:ss =      0 h 00 m 04 s
 Mean elapsed time per time step in seconds =    2.3539999723434448E-003
 Time steps remaining =         1000
 Estimated remaining time in seconds =    2.3539999723434448     
 Estimated remaining time in hh:mm:ss =      0 h 00 m 02 s
 Estimated total run time in seconds =    7.0619999170303345     
 Estimated total run time in hh:mm:ss =      0 h 00 m 07 s
 The run will finish approximately on: Sat Feb 09, 2019 23:20


 Creating color image of size          210  x           90  for time step         2000
 drawing scalar image of the forward wavefield displacement...
 Color image maximum amplitude =    2.9461169255926862E-003
 Color image created

 Creating color image of size          210  x           90  for time step         2100
 drawing scalar image of the forward wavefield displacement...
 Color image maximum amplitude =    2.9213360439875428E-003
 Color image created

 Creating color image of size          210  x           90  for time step         2200
 drawing scalar image of the forward wavefield displacement...
 Color image maximum amplitude =    2.7489684585121923E-003
 Color image created

 Creating color image of size          210  x           90  for time step         2300
 drawing scalar image of the forward wavefield displacement...
 Color image maximum amplitude =    2.5838721561606383E-003
 Color image created

 ******************************************************************
Time step number    2400   t =   47.9800 s out of    3000
 ******************************************************************
 We have done    79.9933319     % of the total
 Max norm of vector field in solid (elastic) =    2.57650111E-03
 Elapsed time in seconds =    5.7000000476837158     
 Elapsed time in hh:mm:ss =      0 h 00 m 05 s
 Mean elapsed time per time step in seconds =    2.3750000198682151E-003
 Time steps remaining =          600
 Estimated remaining time in seconds =    1.4250000119209290     
 Estimated remaining time in hh:mm:ss =      0 h 00 m 01 s
 Estimated total run time in seconds =    7.1250000596046448     
 Estimated total run time in hh:mm:ss =      0 h 00 m 07 s
 The run will finish approximately on: Sat Feb 09, 2019 23:20


 Creating color image of size          210  x           90  for time step         2400
 drawing scalar image of the forward wavefield displacement...
 Color image maximum amplitude =    2.5709964594520900E-003
 Color image created

 Creating color image of size          210  x           90  for time step         2500
 drawing scalar image of the forward wavefield displacement...
 Color image maximum amplitude =    2.4896687485157455E-003
 Color image created

 Creating color image of size          210  x           90  for time step         2600
 drawing scalar image of the forward wavefield displacement...
 Color image maximum amplitude =    2.4160591693908255E-003
 Color image created

 Creating color image of size          210  x           90  for time step         2700
 drawing scalar image of the forward wavefield displacement...
 Color image maximum amplitude =    2.4187147440914779E-003
 Color image created

 ******************************************************************
Time step number    2800   t =   55.9800 s out of    3000
 ******************************************************************
 We have done    93.3311081     % of the total
 Max norm of vector field in solid (elastic) =    2.32279766E-03
 Elapsed time in seconds =    6.6419999599456787     
 Elapsed time in hh:mm:ss =      0 h 00 m 06 s
 Mean elapsed time per time step in seconds =    2.3721428428377426E-003
 Time steps remaining =          200
 Estimated remaining time in seconds =   0.47442856856754850     
 Estimated remaining time in hh:mm:ss =      0 h 00 m 00 s
 Estimated total run time in seconds =    7.1164285285132269     
 Estimated total run time in hh:mm:ss =      0 h 00 m 07 s
 The run will finish approximately on: Sat Feb 09, 2019 23:20


 Creating color image of size          210  x           90  for time step         2800
 drawing scalar image of the forward wavefield displacement...
 Color image maximum amplitude =    2.3165949940132124E-003
 Color image created

 Creating color image of size          210  x           90  for time step         2900
 drawing scalar image of the forward wavefield displacement...
 Color image maximum amplitude =    2.2987018551182009E-003
 Color image created

 ******************************************************************
Time step number    3000   t =   59.9800 s out of    3000
 ******************************************************************
 We have done    100.000000     % of the total
 Max norm of vector field in solid (elastic) =    2.18263105E-03
 Elapsed time in seconds =    7.1129999160766602     
 Elapsed time in hh:mm:ss =      0 h 00 m 07 s
 Mean elapsed time per time step in seconds =    2.3709999720255533E-003
 Time steps remaining =            0
 Estimated remaining time in seconds =    0.0000000000000000     
 Estimated remaining time in hh:mm:ss =      0 h 00 m 00 s
 Estimated total run time in seconds =    7.1129999160766602     
 Estimated total run time in hh:mm:ss =      0 h 00 m 07 s


 Creating color image of size          210  x           90  for time step         3000
 drawing scalar image of the forward wavefield displacement...
 Color image maximum amplitude =    2.1493892700011428E-003
 Color image created

 Total duration of the time loop in seconds =    7.12115145      s
 Total number of time steps =         3000
 Average duration of a time step of the time loop =    2.37371726E-03  s
 Total number of spectral elements in the mesh =         2560
     of which         2560  are regular elements
     and            0  are PML elements.
 Average duration of the calculation per spectral element =    9.27233259E-07  s


 Total duration of the timeloop in seconds, measured using 
 date and time of the system :    7.12199974      s

 Saving elastic last frame...



 -------------------------------------------------------------------------------
 -------------------------------------------------------------------------------
 Program SPECFEM2D: 
 -------------------------------------------------------------------------------
 -------------------------------------------------------------------------------
 Tromp-Tape-Liu (GJI 2005)
 -------------------------------------------------------------------------------
 -------------------------------------------------------------------------------
 D a t e : 09 - 02 - 2019                                 T i m e  : 23:19:50
 -------------------------------------------------------------------------------
 -------------------------------------------------------------------------------

see results in directory: OUTPUT_FILES/

done
Sat Feb 9 23:19:50 AST 2019

setting up adjoint sources


running adjoint source creation

 adjoint source - seismogram:

 setup:
   number of adjoint stations (nrec)   =            1
   station name            1 :    AA.S0001                                                                                                                                              

   seismogram components   =            2
   seismogram labels       = BXX / BXZ

   time window start/end                           =    27.000000000000000        32.000000000000000     
   adjoint source trace component (1 == X / 2 == Y / 3 == Z) =            1

 reading input traces:
   number of time steps (NSTEP)  =         3000

   start time (t0)               =   -8.0000000000000000     
   end time                      =    51.980000000000004     
   time step size (deltat)       =    2.0000000000000000E-002

 time window:
   index      : istart =        1751 iend =        2001
   time window: tstart =   27.000000000000000      tend =   32.000000000000000     

 component: BXX
 Norm =  -8.6302144144745891E-006

 component: BXY
 Norm < EPS for file, zeroeing out trace
 Norm =   0.0000000000000000     

 component: BXZ
 Norm =  -1.2516391634024930E-008

 *************************
 The input files (AA.S****.BXX/BXY/BXZ.adj) needed to run the adjoint simulation are in folder SEM/
 *************************

running kernel simulation

Changed simulation_type to 3 in Par_file 
running example: Sat Feb  9 23:19:50 AST 2019

setting up example...


running mesher...


 **********************************************
 *** Specfem 2-D Mesher - MPI version       ***
 **********************************************

 Running Git version of the code corresponding to undefined in the case of old tar ball builds
 dating undefined in the case of old tar ball builds

 Reading the parameter file...

 Title of the simulation: Tromp-Tape-Liu (GJI 2005)


 Receiver lines:
   Nb of line sets =            1

 Materials:
   Nb of solid, fluid or porous materials =            1

 --------
 Material #           1  isotropic
 rho,cp,cs   =    2600.0000000000000        5800.0000000000000        3198.5999999999999     
 Qkappa, Qmu =    10.000000000000000        10.000000000000000     
 Material is solid
 --------

 Mesh from internal meshing:

 Reading interface data from file: ./DATA/./interfaces_Tromp2005.dat                                                                                                                                                                                                                                                                                                                                                                                                                                                                                               
 Reading            2  points for interface            1
 Reading            2  points for interface            2

 Total number of layers in z direction =            1
 There are           32  spectral elements along Z in layer            1

 Total number of spectral elements along X =           80
 Total number of spectral elements along Z =           32

 Regions:
   Nb of regions in the mesh =            1

 ------
 Region            1
 IX from            1  to           80
 IZ from            1  to           32
 Material #            1  isotropic
 Material is solid
 vp     =    5800.00000    
 vs     =    3198.60010    
 rho    =    2600.00000    
 Poisson's ratio =   0.281471640    
 QKappa =    10.0000000    
 Qmu    =    10.0000000    
 ------
 Total number of spectral elements         =         2560


 Parameter file successfully read 

 The mesh contains         2560  elements

 Control elements have            4  nodes

 Source           1
   Position xs, zs =    50000.000000000000        40000.000000000000     

   Source type (1=force, 2=moment tensor, 3=Rayleigh wave, 4=plane incident P, 5=plane incident S):            1
   Force source:
   Angle of the source (deg) =    4.7123889803846897     
   Multiplying factor  =    7500000000.0000000     

   Time function type (1=Ricker, 2=First derivative, 3=Gaussian, 4=Dirac, 5=Heaviside, 8=Read from file, 9=burst):           2
   Ricker wavelet (first-derivative):
   Frequency, delay =   0.41999999999999998        0.0000000000000000     

 Reading interface data from file: ./DATA/./interfaces_Tromp2005.dat

 Mesh dimensions: 
   Min and max value of X in the grid =    0.0000000000000000        200000.00000000000     
   Min and max value of Z in the grid =    0.0000000000000000        80000.000000000000     

 nedges_coupled (acoustic/elastic)     =            0
 nedges_coupled (acoustic/poroelastic) =            0
 nedges_coupled (poroelastic/elastic)  =            0

 slice            0  has number of spectral elements =        2560

 Position (x,z) of the source =    50000.000000000000        40000.000000000000     


 writing the ./DATA/STATIONS file


 There are            1  receivers

 Target positions (x,z) of the            1  receivers

 Receiver            1  =    150000.00000000000        40000.000000000000     

 This will be a serial simulation


running solver...


 **********************************************
 **** Specfem 2-D Solver - MPI version     ****
 **********************************************

 Running Git version of the code corresponding to undefined in the case of old tar ball builds
 dating undefined in the case of old tar ball builds

 There are            1  MPI processes
 Processes are numbered from 0 to            0

 There is a total of            1  slices


 NDIM =            2

 NGLLX =            5
 NGLLZ =            5

 using single precision for the calculations

 smallest and largest possible floating-point numbers are:    1.17549435E-38   3.40282347E+38


 -------------------------------------------------------------------------------
 -------------------------------------------------------------------------------
 Program SPECFEM2D: 
 -------------------------------------------------------------------------------
 -------------------------------------------------------------------------------
 Tromp-Tape-Liu (GJI 2005)
 -------------------------------------------------------------------------------
 -------------------------------------------------------------------------------
 D a t e : 09 - 02 - 2019                                 T i m e  : 23:19:51
 -------------------------------------------------------------------------------
 -------------------------------------------------------------------------------


 C o n t r o l
 =============

     Number of spectral element control nodes. . .(npgeo) =    2673
     Number of space dimensions. . . . . . . . . . (NDIM) =       2


 C o n t r o l
 =============

     Display frequency . . . .(NSTEP_BETWEEN_OUTPUT_INFO) =    400
     Color display . . . . . . . . . . . . . . . (colors) =      1
      == 0     black and white display              
      == 1     color display                        
     Numbered mesh . . . . . . . . . . . . . . .(numbers) =      0
      == 0     do not number the mesh               
      == 1     number the mesh                      


 C o n t r o l
 =============

     Seismograms recording type . . . . . . .(seismotype) = 1
     Angle for first line of receivers. . . . .(anglerec) =   0.00


 C o n t r o l
 =============

     Read external initial field. . . . . .(initialfield) =      F
     Add Bielak conditions (add_Bielak_conditions_bottom) =      F
     Add Bielak conditions .(add_Bielak_conditions_right) =      F
     Add Bielak conditions . .(add_Bielak_conditions_top) =      F
     Add Bielak conditions. .(add_Bielak_conditions_left) =      F
     Attenuation in solid . . .(ATTENUATION_VISCOELASTIC) =      F
     Attenuation in fluid . . (ATTENUATION_VISCOACOUSTIC) =      F
     Save grid in ASCII file or not . (output_grid_ASCII) =      F
     Save a file with total energy or not.(OUTPUT_ENERGY) =      F


 C o n t r o l
 =============

     Vector display type . . . . . . . . .(imagetype_postscript) =      1
     Percentage of cut for vector plots. . . . . . . .(cutsnaps) =   1.00
     Subsampling of velocity model display. (subsamp_postscript) =      1


 I t e r a t i o n s 
 ===================

     Number of time iterations . . . . .(NSTEP) =    3000
     Time step increment. . . . . . . . . .(DT) =   2.000000E-02
     Total simulation duration . . . . . (ttot) =   6.000000E+01


     Source Type. . . . . . . . . . . . . . = Collocated Force
     X-position (meters). . . . . . . . . . =    5.0000000000E+04
     Y-position (meters). . . . . . . . . . =    4.0000000000E+04
     Fundamental frequency (Hz) . . . . . . =    4.2000000000E-01
     Time delay (s) . . . . . . . . . . . . =    0.0000000000E+00
     Multiplying factor . . . . . . . . . . =    7.5000000000E+09
     Angle from vertical direction (deg). . =    4.7123889804E+00


     using USER_T0 . . . . . . . . . =    8.0000000000000000     
       original t0 . . . . . . . . . =    2.8571428571428572     
       min_tshift_src_original . . . =    0.0000000000000000     

     fix new simulation start time . =   -8.0000000000000000     
     source            1 uses tshift =    0.0000000000000000     

     Onset time. . . . . . =   -8.0000000000000000     
     Fundamental period. . =    2.3809523809523809     
     Fundamental frequency =   0.41999999999999998     
     The onset time is ok

     -- Spectral Elements --


     Number of spectral elements . . . . . . . . .  (nspec) =   2560
     Number of control nodes per element . . . . . (ngnod) =      4
     Number of points in X-direction . . . . . . . (NGLLX) =      5
     Number of points in Y-direction . . . . . . . (NGLLZ) =      5
     Number of points per element. . . . . . (NGLLX*NGLLZ) =     25
     Number of points for display . . . . . . (pointsdisp) =      6
     Number of element material sets . . . . . . . (numat) =      1
     Number of acoustic forcing elements (nelem_acforcing) =      0
     Number of acoustic free surf (nelem_acoustic_surface) =      0


 M a t e r i a l   s e t s :   2 D  (p o r o) e l a s t i c i t y
 ======================================================

     Number of material sets . . . . . . (numat) =     1


     ----------------------------------------
     -- Elastic (solid) isotropic material --
     ----------------------------------------
     Material set number. . . . . . . . (jmat) =     1
     P-wave velocity. . . . . . . . . . . (cp) = 5.80000000E+03
     S-wave velocity. . . . . . . . . . . (cs) = 3.19860000E+03
     Mass density. . . . . . . . . . (density) = 2.60000000E+03
     Poisson's ratio. . . . . . . . .(poisson) = 2.81471650E-01
     First Lame parameter Lambda. . . (lambda) = 3.42625818E+10
     Second Lame parameter Mu. . . . . . .(mu) = 2.66007091E+10
     Bulk modulus Kappa . . . . . . . .(kappa) = 6.08632909E+10
     Young's modulus E. . . . . . . . .(young) = 6.96544755E+10
     QKappa_attenuation .  . . . . . .(QKappa) = 1.00000000E+01
     Qmu_attenuation . . . . . . . . . . (Qmu) = 1.00000000E+01

 Absorbing boundaries:
   using Stacey absorbing boundary conditions

 Number of absorbing elements:          144
   nspec_left   =           32
   nspec_right  =           32
   nspec_bottom =           80
   nspec_top    =            0


 Setting up mesh

 Generating global mesh numbering (fast version)...

 Mesh numbering:
   Total number of elements:         2560

   Total number of acoustic elements           =            0
   Total number of elastic/visco/poro elements =         2560

 Approximate total number of grid points in the mesh
 (with a few duplicates coming from MPI buffers):        41409

 Approximate number of acoustic degrees of freedom in the mesh:            0
 Approximate number of elastic degrees of freedom in the mesh:        82818
   (there are 2 degrees of freedom per point for elastic elements)

 Approximate total number of degrees of freedom in the mesh
 (sum of the two values above):        82818

  (for simplicity viscoelastic or poroelastic elements, if any,
   are counted as elastic in the above three estimates;
   in reality they have more degrees of freedom)

 Mesh dimensions:
   Xmin,Xmax of the whole mesh =    0.0000000000000000        200000.00000000003     
   Zmin,Zmax of the whole mesh =    0.0000000000000000        80000.000000000000     

 Domains:
   total number of acoustic elements        =            0
   total number of elastic elements         =         2560
   total number of poroelastic elements     =            0

 Setting up MPI communication arrays

   maximum number of MPI interfaces (for a single slice) =            0

   This is a single process simulation, no need for MPI communication

   number of outer elements  =            0
   number of inner elements  =         2560

   percentage of outer elements    0.00000000     %
   percentage of inner elements    100.000000     %

   number of global nodes in outer elements  =            0
   number of global nodes in inner elements  =        41409

   determining communication phases:
   elastic domains:
   total number of outer/inner elements =            0        2560
   total percentage of outer elements    0.00000000     %
   total percentage of inner elements    100.000000     %

 All mesh setup done successfully

 sources:

 *******************************
  locating force source
 *******************************


 Force source:
             original x:    50000.0000    
             original z:    40000.0000    
 Closest estimate found:    0.00000000      m away
  in rank            0
  in element         1220
  in elastic domain
  at xi,gamma coordinates =    1.0000000000000000        1.0000000000000000     


 end of force source detection


 receivers:

 Total number of receivers =            1


 ********************
  locating receivers
 ********************

 reading receiver information from the ./DATA/STATIONS file


 Station #            1     AA      S0001                           
             original x:    150000.000    
             original z:    40000.0000    
 Closest estimate found:    0.00000000      m away
  in element         1260
  in rank            0
  at xi,gamma coordinates =    1.0000000000000000        1.0000000000000000     
 Distance from source:    100000.000      m


 end of receiver detection

 found a total of            1  receivers, this is okay


 adjoint sources:
   adjoint source type:           1
   reading ASCII adjoint source files
   number of adjoint sources =            1
   adjoint sources min/max   =   -373.259827       224.704834    

 Preparing array allocations
   arrays for elastic domains
   wavefield initialization
   done initialization

 Preparing mass matrices
   initializing mass matrices
   inverting mass matrices

 Preparing image coloring

 Checking mesh and stability

 ********
 Model: P (or PI) velocity min,max =    5800.0000000000000        5800.0000000000000     
 Model: S velocity min,max         =    3198.6000000000004        3198.6000000000004     
 Model: density min,max            =    2600.0000000000000        2600.0000000000000     
 ********


 *********************************************
 *** Verification of simulation parameters ***
 *********************************************

 *** Max grid size =    2500.0000000000000     
 *** Min grid size =    2500.0000000000000     
 *** Max/min ratio =    1.0000000000000000     

 *** Minimum GLL point distance  =    431.68291161502850     
 *** Average GLL point distance  =    625.00000000000000     

 *** Minimum period resolved     =   0.97698993309572923     
 *** Maximum frequency resolved  =    1.0235520000000002      Hz

 *** Maximum suggested time step                 =    3.7214044104743833E-002
 *** Maximum suggested (Ricker) source frequency =   0.40942080000000014     

 *** for DT :    2.0000000000000000E-002
 *** Max CFL stability condition of the time scheme based on P wave velocity (must be below about 0.50 or so) =   0.26871575612297555     

 ----
 Number of points per wavelength:
 ----
   Source            1
   maximum dominant source frequency =    1.0500000000000000      Hz

   Nb pts / lambdaP_fmax min =    8.83809566    
   Nb pts / lambdaP_fmax max =    8.83809566    

   Nb pts / lambdaS_fmax min =    4.87405729    
   Nb pts / lambdaS_fmax max =    4.87405729    

 -----------------------------------------

 histogram of min number of points per S wavelength in solid regions:

 there are         2560  elements out of         2560  in solid regions
   (i.e.,    100.000000     % of the total)

 (too small = poor resolution of calculations -
  too big = wasting memory and CPU time)
 (threshold value is around 4.5 points per S wavelength
  in elastic regions and 5.5 per P wavelength in fluid regions):

   4.82531643      -    4.83019066               0     0.00000000      %
   4.83019066      -    4.83506489               0     0.00000000      %
   4.83506489      -    4.83993864               0     0.00000000      %
   4.83993864      -    4.84481287               0     0.00000000      %
   4.84481287      -    4.84968662               0     0.00000000      %
   4.84968662      -    4.85456085               0     0.00000000      %
   4.85456085      -    4.85943508               0     0.00000000      %
   4.85943508      -    4.86430883               0     0.00000000      %
   4.86430883      -    4.86918306               0     0.00000000      %
   4.86918306      -    4.87405729               0     0.00000000      %
   4.87405729      -    4.87893105            2560     100.000000      %
   4.87893105      -    4.88380527               0     0.00000000      %
   4.88380527      -    4.88867950               0     0.00000000      %
   4.88867950      -    4.89355326               0     0.00000000      %
   4.89355326      -    4.89842749               0     0.00000000      %
   4.89842749      -    4.90330172               0     0.00000000      %
   4.90330172      -    4.90817547               0     0.00000000      %
   4.90817547      -    4.91304970               0     0.00000000      %
   4.91304970      -    4.91792345               0     0.00000000      %
   4.91792345      -    4.92279768               0     0.00000000      %

 total percentage =    100.00000000000000       %


 total number of elements in fluid and solid regions =         2560


 Preparing adjoint simulation
   initializing adjoint sensitivity kernels
   reading Stacey boundary arrays

 Preparing source time function
   saving the source time function in a text file...

 Preparing material arrays

 Preparing image coloring
   allocating color image arrays
   locating all the pixels of color images
   total number of image pixels =        17765
   done locating all the pixels of color images
   coloring image background based on vp

 done, preparation successful


 =========================================
 =  T i m e  e v o l u t i o n  l o o p  =
 =========================================


 Starting time iteration loop ...


 ******************************************************************
Time step number       5   t =    0.0800 s out of    3000
 ******************************************************************
 We have done   0.133377790     % of the total
 Max norm of vector field in solid (elastic) =    0.00000000    
 Elapsed time in seconds =    3.5000085830688477E-002
 Elapsed time in hh:mm:ss =      0 h 00 m 00 s
 Mean elapsed time per time step in seconds =    7.0000171661376955E-003
 Time steps remaining =         2995
 Estimated remaining time in seconds =    20.965051412582397     
 Estimated remaining time in hh:mm:ss =      0 h 00 m 20 s
 Estimated total run time in seconds =    21.000051498413086     
 Estimated total run time in hh:mm:ss =      0 h 00 m 21 s
 The run will finish approximately on: Sat Feb 09, 2019 23:20


 Creating color image of size          210  x           90  for time step            5
 drawing scalar image of the adjoint wavefield displacement...
 Color image maximum amplitude =    0.0000000000000000     
 Color image created

 Creating color image of size          210  x           90  for time step            5
 drawing scalar image of the reconstructed forward wavefield displacement...
 Color image maximum amplitude =    2.1779356676191013E-003
 Color image created

 Creating color image of size          210  x           90  for time step          100
 drawing scalar image of the adjoint wavefield displacement...
 Color image maximum amplitude =    0.0000000000000000     
 Color image created

 Creating color image of size          210  x           90  for time step          100
 drawing scalar image of the reconstructed forward wavefield displacement...
 Color image maximum amplitude =    2.3119464133660910E-003
 Color image created

 Creating color image of size          210  x           90  for time step          200
 drawing scalar image of the adjoint wavefield displacement...
 Color image maximum amplitude =    0.0000000000000000     
 Color image created

 Creating color image of size          210  x           90  for time step          200
 drawing scalar image of the reconstructed forward wavefield displacement...
 Color image maximum amplitude =    2.3233288939783401E-003
 Color image created

 Creating color image of size          210  x           90  for time step          300
 drawing scalar image of the adjoint wavefield displacement...
 Color image maximum amplitude =    0.0000000000000000     
 Color image created

 Creating color image of size          210  x           90  for time step          300
 drawing scalar image of the reconstructed forward wavefield displacement...
 Color image maximum amplitude =    2.4213607671416111E-003
 Color image created

 ******************************************************************
Time step number     400   t =    7.9800 s out of    3000
 ******************************************************************
 We have done    13.3044348     % of the total
 Max norm of vector field in solid (elastic) =    0.00000000    
 Elapsed time in seconds =    2.8930001258850098     
 Elapsed time in hh:mm:ss =      0 h 00 m 02 s
 Mean elapsed time per time step in seconds =    7.2325003147125245E-003
 Time steps remaining =         2600
 Estimated remaining time in seconds =    18.804500818252563     
 Estimated remaining time in hh:mm:ss =      0 h 00 m 18 s
 Estimated total run time in seconds =    21.697500944137573     
 Estimated total run time in hh:mm:ss =      0 h 00 m 21 s
 The run will finish approximately on: Sat Feb 09, 2019 23:20


 Creating color image of size          210  x           90  for time step          400
 drawing scalar image of the adjoint wavefield displacement...
 Color image maximum amplitude =    0.0000000000000000     
 Color image created

 Creating color image of size          210  x           90  for time step          400
 drawing scalar image of the reconstructed forward wavefield displacement...
 Color image maximum amplitude =    2.4120673070908974E-003
 Color image created

 Creating color image of size          210  x           90  for time step          500
 drawing scalar image of the adjoint wavefield displacement...
 Color image maximum amplitude =    0.0000000000000000     
 Color image created

 Creating color image of size          210  x           90  for time step          500
 drawing scalar image of the reconstructed forward wavefield displacement...
 Color image maximum amplitude =    2.4847612132966037E-003
 Color image created

 Creating color image of size          210  x           90  for time step          600
 drawing scalar image of the adjoint wavefield displacement...
 Color image maximum amplitude =    0.0000000000000000     
 Color image created

 Creating color image of size          210  x           90  for time step          600
 drawing scalar image of the reconstructed forward wavefield displacement...
 Color image maximum amplitude =    2.5598516772935911E-003
 Color image created

 Creating color image of size          210  x           90  for time step          700
 drawing scalar image of the adjoint wavefield displacement...
 Color image maximum amplitude =    0.0000000000000000     
 Color image created

 Creating color image of size          210  x           90  for time step          700
 drawing scalar image of the reconstructed forward wavefield displacement...
 Color image maximum amplitude =    2.5674319026795277E-003
 Color image created

 ******************************************************************
Time step number     800   t =   15.9800 s out of    3000
 ******************************************************************
 We have done    26.6422138     % of the total
 Max norm of vector field in solid (elastic) =    0.00000000    
 Elapsed time in seconds =    5.7710001468658447     
 Elapsed time in hh:mm:ss =      0 h 00 m 05 s
 Mean elapsed time per time step in seconds =    7.2137501835823062E-003
 Time steps remaining =         2200
 Estimated remaining time in seconds =    15.870250403881073     
 Estimated remaining time in hh:mm:ss =      0 h 00 m 15 s
 Estimated total run time in seconds =    21.641250550746918     
 Estimated total run time in hh:mm:ss =      0 h 00 m 21 s
 The run will finish approximately on: Sat Feb 09, 2019 23:20


 Creating color image of size          210  x           90  for time step          800
 drawing scalar image of the adjoint wavefield displacement...
 Color image maximum amplitude =    0.0000000000000000     
 Color image created

 Creating color image of size          210  x           90  for time step          800
 drawing scalar image of the reconstructed forward wavefield displacement...
 Color image maximum amplitude =    2.7714247524764702E-003
 Color image created

 Creating color image of size          210  x           90  for time step          900
 drawing scalar image of the adjoint wavefield displacement...
 Color image maximum amplitude =    0.0000000000000000     
 Color image created

 Creating color image of size          210  x           90  for time step          900
 drawing scalar image of the reconstructed forward wavefield displacement...
 Color image maximum amplitude =    2.9213672337140280E-003
 Color image created

 Creating color image of size          210  x           90  for time step         1000
 drawing scalar image of the adjoint wavefield displacement...
 Color image maximum amplitude =    0.0000000000000000     
 Color image created

 Creating color image of size          210  x           90  for time step         1000
 drawing scalar image of the reconstructed forward wavefield displacement...
 Color image maximum amplitude =    2.9299547070202351E-003
 Color image created

 Creating color image of size          210  x           90  for time step         1100
 drawing scalar image of the adjoint wavefield displacement...
 Color image maximum amplitude =    2.6011223483837741E-010
 Color image created

 Creating color image of size          210  x           90  for time step         1100
 drawing scalar image of the reconstructed forward wavefield displacement...
 Color image maximum amplitude =    2.9404830824819035E-003
 Color image created

 ******************************************************************
Time step number    1200   t =   23.9800 s out of    3000
 ******************************************************************
 We have done    39.9799919     % of the total
 Max norm of vector field in solid (elastic) =    1.33064426E-09
 Elapsed time in seconds =    8.7050001621246338     
 Elapsed time in hh:mm:ss =      0 h 00 m 08 s
 Mean elapsed time per time step in seconds =    7.2541668017705278E-003
 Time steps remaining =         1800
 Estimated remaining time in seconds =    13.057500243186951     
 Estimated remaining time in hh:mm:ss =      0 h 00 m 13 s
 Estimated total run time in seconds =    21.762500405311584     
 Estimated total run time in hh:mm:ss =      0 h 00 m 21 s
 The run will finish approximately on: Sat Feb 09, 2019 23:20


 Creating color image of size          210  x           90  for time step         1200
 drawing scalar image of the adjoint wavefield displacement...
 Color image maximum amplitude =    1.3036146592434332E-009
 Color image created

 Creating color image of size          210  x           90  for time step         1200
 drawing scalar image of the reconstructed forward wavefield displacement...
 Color image maximum amplitude =    3.1805272069317103E-003
 Color image created

 Creating color image of size          210  x           90  for time step         1300
 drawing scalar image of the adjoint wavefield displacement...
 Color image maximum amplitude =    1.0468367909198189E-009
 Color image created

 Creating color image of size          210  x           90  for time step         1300
 drawing scalar image of the reconstructed forward wavefield displacement...
 Color image maximum amplitude =    3.2720046357786704E-003
 Color image created

 Creating color image of size          210  x           90  for time step         1400
 drawing scalar image of the adjoint wavefield displacement...
 Color image maximum amplitude =    8.3476499401875352E-010
 Color image created

 Creating color image of size          210  x           90  for time step         1400
 drawing scalar image of the reconstructed forward wavefield displacement...
 Color image maximum amplitude =    3.3779128859688463E-003
 Color image created

 Creating color image of size          210  x           90  for time step         1500
 drawing scalar image of the adjoint wavefield displacement...
 Color image maximum amplitude =    7.4716399932930672E-010
 Color image created

 Creating color image of size          210  x           90  for time step         1500
 drawing scalar image of the reconstructed forward wavefield displacement...
 Color image maximum amplitude =    3.5449582400184257E-003
 Color image created

 ******************************************************************
Time step number    1600   t =   31.9800 s out of    3000
 ******************************************************************
 We have done    53.3177719     % of the total
 Max norm of vector field in solid (elastic) =    7.07720660E-10
 Elapsed time in seconds =    11.604000091552734     
 Elapsed time in hh:mm:ss =      0 h 00 m 11 s
 Mean elapsed time per time step in seconds =    7.2525000572204587E-003
 Time steps remaining =         1400
 Estimated remaining time in seconds =    10.153500080108643     
 Estimated remaining time in hh:mm:ss =      0 h 00 m 10 s
 Estimated total run time in seconds =    21.757500171661377     
 Estimated total run time in hh:mm:ss =      0 h 00 m 21 s
 The run will finish approximately on: Sat Feb 09, 2019 23:20


 Creating color image of size          210  x           90  for time step         1600
 drawing scalar image of the adjoint wavefield displacement...
 Color image maximum amplitude =    7.0851147846418859E-010
 Color image created

 Creating color image of size          210  x           90  for time step         1600
 drawing scalar image of the reconstructed forward wavefield displacement...
 Color image maximum amplitude =    4.0868193183456808E-003
 Color image created

 Creating color image of size          210  x           90  for time step         1700
 drawing scalar image of the adjoint wavefield displacement...
 Color image maximum amplitude =    6.0750890004982085E-010
 Color image created

 Creating color image of size          210  x           90  for time step         1700
 drawing scalar image of the reconstructed forward wavefield displacement...
 Color image maximum amplitude =    4.1577113771659241E-003
 Color image created

 Creating color image of size          210  x           90  for time step         1800
 drawing scalar image of the adjoint wavefield displacement...
 Color image maximum amplitude =    9.8877326242791400E-010
 Color image created

 Creating color image of size          210  x           90  for time step         1800
 drawing scalar image of the reconstructed forward wavefield displacement...
 Color image maximum amplitude =    5.6377020062164133E-003
 Color image created

 Creating color image of size          210  x           90  for time step         1900
 drawing scalar image of the adjoint wavefield displacement...
 Color image maximum amplitude =    7.8313395270832300E-010
 Color image created

 Creating color image of size          210  x           90  for time step         1900
 drawing scalar image of the reconstructed forward wavefield displacement...
 Color image maximum amplitude =    7.3335339317207133E-003
 Color image created

 ******************************************************************
Time step number    2000   t =   39.9800 s out of    3000
 ******************************************************************
 We have done    66.6555481     % of the total
 Max norm of vector field in solid (elastic) =    6.33910979E-10
 Elapsed time in seconds =    14.462000131607056     
 Elapsed time in hh:mm:ss =      0 h 00 m 14 s
 Mean elapsed time per time step in seconds =    7.2310000658035280E-003
 Time steps remaining =         1000
 Estimated remaining time in seconds =    7.2310000658035278     
 Estimated remaining time in hh:mm:ss =      0 h 00 m 07 s
 Estimated total run time in seconds =    21.693000197410583     
 Estimated total run time in hh:mm:ss =      0 h 00 m 21 s
 The run will finish approximately on: Sat Feb 09, 2019 23:20


 Creating color image of size          210  x           90  for time step         2000
 drawing scalar image of the adjoint wavefield displacement...
 Color image maximum amplitude =    6.2144493763243554E-010
 Color image created

 Creating color image of size          210  x           90  for time step         2000
 drawing scalar image of the reconstructed forward wavefield displacement...
 Color image maximum amplitude =    8.0836141067892799E-003
 Color image created

 Creating color image of size          210  x           90  for time step         2100
 drawing scalar image of the adjoint wavefield displacement...
 Color image maximum amplitude =    4.5771701921759830E-010
 Color image created

 Creating color image of size          210  x           90  for time step         2100
 drawing scalar image of the reconstructed forward wavefield displacement...
 Color image maximum amplitude =    5.2035434042769545E-003
 Color image created

 Creating color image of size          210  x           90  for time step         2200
 drawing scalar image of the adjoint wavefield displacement...
 Color image maximum amplitude =    4.2552729408345744E-010
 Color image created

 Creating color image of size          210  x           90  for time step         2200
 drawing scalar image of the reconstructed forward wavefield displacement...
 Color image maximum amplitude =    5.8368729915198401E-003
 Color image created

 Creating color image of size          210  x           90  for time step         2300
 drawing scalar image of the adjoint wavefield displacement...
 Color image maximum amplitude =    4.2141786253966013E-010
 Color image created

 Creating color image of size          210  x           90  for time step         2300
 drawing scalar image of the reconstructed forward wavefield displacement...
 Color image maximum amplitude =    6.6966028497651197E-003
 Color image created

 ******************************************************************
Time step number    2400   t =   47.9800 s out of    3000
 ******************************************************************
 We have done    79.9933319     % of the total
 Max norm of vector field in solid (elastic) =    4.08262091E-10
 Elapsed time in seconds =    17.305999994277954     
 Elapsed time in hh:mm:ss =      0 h 00 m 17 s
 Mean elapsed time per time step in seconds =    7.2108333309491473E-003
 Time steps remaining =          600
 Estimated remaining time in seconds =    4.3264999985694885     
 Estimated remaining time in hh:mm:ss =      0 h 00 m 04 s
 Estimated total run time in seconds =    21.632499992847443     
 Estimated total run time in hh:mm:ss =      0 h 00 m 21 s
 The run will finish approximately on: Sat Feb 09, 2019 23:20


 Creating color image of size          210  x           90  for time step         2400
 drawing scalar image of the adjoint wavefield displacement...
 Color image maximum amplitude =    4.1077871270832885E-010
 Color image created

 Creating color image of size          210  x           90  for time step         2400
 drawing scalar image of the reconstructed forward wavefield displacement...
 Color image maximum amplitude =    7.8321351977051427E-003
 Color image created

 Creating color image of size          210  x           90  for time step         2500
 drawing scalar image of the adjoint wavefield displacement...
 Color image maximum amplitude =    3.8023437142726563E-010
 Color image created

 Creating color image of size          210  x           90  for time step         2500
 drawing scalar image of the reconstructed forward wavefield displacement...
 Color image maximum amplitude =    9.5185507684187581E-003
 Color image created

 Creating color image of size          210  x           90  for time step         2600
 drawing scalar image of the adjoint wavefield displacement...
 Color image maximum amplitude =    3.8011996884968991E-010
 Color image created

 Creating color image of size          210  x           90  for time step         2600
 drawing scalar image of the reconstructed forward wavefield displacement...
 Color image maximum amplitude =    1.8646554079562467E-002
 Color image created

 Creating color image of size          210  x           90  for time step         2700
 drawing scalar image of the adjoint wavefield displacement...
 Color image maximum amplitude =    3.6454523856154717E-010
 Color image created

 Creating color image of size          210  x           90  for time step         2700
 drawing scalar image of the reconstructed forward wavefield displacement...
 Color image maximum amplitude =    2.0800756591128335E-005
 Color image created

 ******************************************************************
Time step number    2800   t =   55.9800 s out of    3000
 ******************************************************************
 We have done    93.3311081     % of the total
 Max norm of vector field in solid (elastic) =    3.54565377E-10
 Elapsed time in seconds =    20.161000013351440     
 Elapsed time in hh:mm:ss =      0 h 00 m 20 s
 Mean elapsed time per time step in seconds =    7.2003571476255144E-003
 Time steps remaining =          200
 Estimated remaining time in seconds =    1.4400714295251029     
 Estimated remaining time in hh:mm:ss =      0 h 00 m 01 s
 Estimated total run time in seconds =    21.601071442876542     
 Estimated total run time in hh:mm:ss =      0 h 00 m 21 s
 The run will finish approximately on: Sat Feb 09, 2019 23:20


 Creating color image of size          210  x           90  for time step         2800
 drawing scalar image of the adjoint wavefield displacement...
 Color image maximum amplitude =    3.5121894762416888E-010
 Color image created

 Creating color image of size          210  x           90  for time step         2800
 drawing scalar image of the reconstructed forward wavefield displacement...
 Color image maximum amplitude =    5.5825677488043110E-009
 Color image created

 Creating color image of size          210  x           90  for time step         2900
 drawing scalar image of the adjoint wavefield displacement...
 Color image maximum amplitude =    3.3796048249005886E-010
 Color image created

 Creating color image of size          210  x           90  for time step         2900
 drawing scalar image of the reconstructed forward wavefield displacement...
 Color image maximum amplitude =    5.7585765011967032E-009
 Color image created

 ******************************************************************
Time step number    3000   t =   59.9800 s out of    3000
 ******************************************************************
 We have done    100.000000     % of the total
 Max norm of vector field in solid (elastic) =    3.40395490E-10
 Elapsed time in seconds =    21.577000141143799     
 Elapsed time in hh:mm:ss =      0 h 00 m 21 s
 Mean elapsed time per time step in seconds =    7.1923333803812660E-003
 Time steps remaining =            0
 Estimated remaining time in seconds =    0.0000000000000000     
 Estimated remaining time in hh:mm:ss =      0 h 00 m 00 s
 Estimated total run time in seconds =    21.577000141143799     
 Estimated total run time in hh:mm:ss =      0 h 00 m 21 s


 Creating color image of size          210  x           90  for time step         3000
 drawing scalar image of the adjoint wavefield displacement...
 Color image maximum amplitude =    3.2445262614549565E-010
 Color image created

 Creating color image of size          210  x           90  for time step         3000
 drawing scalar image of the reconstructed forward wavefield displacement...
 Color image maximum amplitude =    5.9646291342334810E-009
 Color image created

 Total duration of the time loop in seconds =    21.5839291      s
 Total number of time steps =         3000
 Average duration of a time step of the time loop =    7.19464291E-03  s
 Total number of spectral elements in the mesh =         2560
     of which         2560  are regular elements
     and            0  are PML elements.
 Average duration of the calculation per spectral element =    2.81040752E-06  s


 Total duration of the timeloop in seconds, measured using 
 date and time of the system :    21.5930004      s

 Writing Kernels file



 -------------------------------------------------------------------------------
 -------------------------------------------------------------------------------
 Program SPECFEM2D: 
 -------------------------------------------------------------------------------
 -------------------------------------------------------------------------------
 Tromp-Tape-Liu (GJI 2005)
 -------------------------------------------------------------------------------
 -------------------------------------------------------------------------------
 D a t e : 09 - 02 - 2019                                 T i m e  : 23:20:13
 -------------------------------------------------------------------------------
 -------------------------------------------------------------------------------

see results in directory: OUTPUT_FILES/

done
Sat Feb 9 23:20:13 AST 2019

see results in directory: OUTPUT_FILES/

done
Sat Feb  9 23:20:13 AST 2019
