running example: Tue Jun 21 03:30:32 AST 2016

setting up example...


running mesher...


 **********************************************
 *** Specfem 2-D Mesher - MPI version       ***
 **********************************************

 Reading the parameter file...

 Title of the simulation: Test for 2 layers: acoustic/poroelastic



 Nb of solid, fluid or porous materials =            2

 Material #           1  isotropic
 rho_s, kappa_s         =    2500.0000000000000        16055400000.000000     
 rho_f, kappa_f, eta_f  =    1020.0000000000000        2295000000.0000000        0.0000000000000000     
 phi, tortuosity        =   0.40000000000000002        2.0000000000000000     
 permxx, permxz, permzz =    1.0000000000000001E-009   0.0000000000000000        1.0000000000000001E-009
 kappa_fr, mu_fr, Qmu   =    10000000000.000000        9633420000.0000000        50.000000000000000     
 Material is porous

 Material #           2  isotropic
 rho,cp,cs   =    1020.0000000000000        1500.0000000000000        0.0000000000000000     
 Qkappa, Qmu =    10.000000000000000        10.000000000000000     
 Material is fluid


 mesh from internal meshing


 Reading interface data from file DATA/./interfaces.dat to count the spectral elements
 Reading            2  points for interface            1
 Reading            2  points for interface            2
 Reading            2  points for interface            3

 Total number of layers in z direction =            2
 There are          110  spectral elements along Z in layer            1
 There are          110  spectral elements along Z in layer            2

 Total number of spectral elements along Z =          220


 Nb of regions in the mesh =            2

 Region            1
 IX from            1  to          220
 IZ from            1  to          110
 Material #            1  isotropic
 Material is poroelastic
  -----
 Region            2
 IX from            1  to          220
 IZ from          111  to          220
 Material #            2  isotropic
 Material is fluid
 vp     =    1500.00000    
 vs     =    0.00000000    
 rho    =    1020.00000    
 Poisson's ratio =   0.500000000    
 QKappa =    10.0000000    
 Qmu    =    10.0000000    
  -----

 Parameter file successfully read 

 The mesh contains        48400  elements

 Control elements have            9  nodes

 Source           1
   Position xs, zs =    1600.0000000000000        2900.0000000000000     

   Source type (1=force, 2=moment tensor):            1
   Force source:
   Angle of the source (deg) =    0.0000000000000000     
   Multiplying factor  =    10000000000.000000     

   Time function type (1=Ricker, 2=First derivative, 3=Gaussian, 4=Dirac, 5=Heaviside, 8=Read from file, 9=burst):           1
   Ricker wavelet (second-derivative):
   Frequency, delay =    15.000000000000000        0.0000000000000000     

 Reading interface data from file DATA/./interfaces.dat

 Min and max value of X in the grid =    0.0000000000000000        4800.0000000000000     
 Min and max value of Z in the grid =    0.0000000000000000        4800.0000000000009     

 nedges_coupled (acoustic/elastic)     =            0
 nedges_coupled (acoustic/poroelastic) =          220
 nedges_coupled (poroelastic/elastic)  =            0

 slice            0  has number of spectral elements =       48400

 Position (x,z) of the source =    1600.0000000000000        2900.0000000000000     


 writing the DATA/STATIONS file


 There are            2  receivers

 Target positions (x,z) of the            2  receivers

 Receiver            1  =    2000.0000000000000        2934.0000000000000     
 Receiver            2  =    2000.0000000000000        1867.0000000000000     

 This will be a serial simulation


running solver...


 **********************************************
 **** Specfem 2-D Solver - MPI version     ****
 **********************************************

 There are            1  MPI processes
 Processes are numbered from 0 to            0

 There is a total of            1  slices

 NDIM =            2

 NGLLX =            5
 NGLLZ =            5

 using single precision for the calculations

 smallest and largest possible floating-point numbers are:    1.17549435E-38   3.40282347E+38


 -------------------------------------------------------------------------------
 -------------------------------------------------------------------------------
 Program SPECFEM2D: 
 -------------------------------------------------------------------------------
 -------------------------------------------------------------------------------
 Test for 2 layers: acoustic/poroelastic           
 -------------------------------------------------------------------------------
 -------------------------------------------------------------------------------
 D a t e : 21 - 06 - 2016                                 T i m e  : 03:30:33
 -------------------------------------------------------------------------------
 -------------------------------------------------------------------------------


 C o n t r o l
 =============

     Number of spectral element control nodes. . .(npgeo) =  194481
     Number of space dimensions. . . . . . . . . . (NDIM) =       2


 C o n t r o l
 =============

     Display frequency . . . .(NSTEP_BETWEEN_OUTPUT_INFO) =    200
     Color display . . . . . . . . . . . . . . . (colors) =      1
             ==  0     black and white display              
             ==  1     color display                        
     Numbered mesh . . . . . . . . . . . . . . .(numbers) =      0
             ==  0     do not number the mesh               
             ==  1     number the mesh                      


 C o n t r o l
 =============

     Seismograms recording type . . . . . . .(seismotype) =      2
     Angle for first line of receivers. . . . .(anglerec) =   0.00


 C o n t r o l
 =============

     Read external initial field. . . . . .(initialfield) =      F
     Add Bielak conditions (add_Bielak_conditions_bottom) =      F
     Add Bielak conditions .(add_Bielak_conditions_right) =      F
     Add Bielak conditions . .(add_Bielak_conditions_top) =      F
     Add Bielak conditions. .(add_Bielak_conditions_left) =      F
     Attenuation on/off .(ATTENUATION_VISCOELASTIC_SOLID) =      F
     Save grid in ASCII file or not . (output_grid_ASCII) =      F
     Save a file with total energy or not.(output_energy) =      F


 C o n t r o l
 =============

     Vector display type . . . . . . . . .(imagetype_postscript) =      1
     Percentage of cut for vector plots. . . . . . . .(cutsnaps) =   1.00
     Subsampling of velocity model display. (subsamp_postscript) =      1


 I t e r a t i o n s 
 ===================

     Number of time iterations . . . . .(NSTEP) =    2500
     Time step increment. . . . . . . . . .(DT) =   4.200000E-04
     Total simulation duration . . . . . (ttot) =   1.050000E+00


     Source Type. . . . . . . . . . . . . . = Collocated Force
     X-position (meters). . . . . . . . . . =    1.6000000000E+03
     Y-position (meters). . . . . . . . . . =    2.9000000000E+03
     Fundamental frequency (Hz) . . . . . . =    1.5000000000E+01
     Time delay (s) . . . . . . . . . . . . =    0.0000000000E+00
     Multiplying factor . . . . . . . . . . =    1.0000000000E+10
     Angle from vertical direction (deg). . =    0.0000000000E+00

     Onset time. . . . . . =   -8.0000000000000002E-002
     Fundamental period. . =    6.6666666666666666E-002
     Fundamental frequency =    15.000000000000000     
     --> onset time ok

     --> Spectral Elements <--


     Number of spectral elements . . . . . . . . .  (nspec) =  48400
     Number of control nodes per element . . . . . (ngnod) =      9
     Number of points in X-direction . . . . . . . (NGLLX) =      5
     Number of points in Y-direction . . . . . . . (NGLLZ) =      5
     Number of points per element. . . . . . (NGLLX*NGLLZ) =     25
     Number of points for display . . . . . . (pointsdisp) =      6
     Number of element material sets . . . . . . . (numat) =      2
     Number of acoustic forcing elements (nelem_acforcing) =      0
     Number of acoustic free surf (nelem_acoustic_surface) =    220


 M a t e r i a l   s e t s :   2 D  (p o r o) e l a s t i c i t y
 ======================================================

     Number of material sets . . . . . . (numat) =     2


     ----------------------------------------
     -- Poroelastic isotropic material --
     ----------------------------------------
     Material set number. . . . . . . . (jmat) =     1
     First P-wave velocity. . . . . . . .(cpI) = 3.67732652E+03
     Second P-wave velocity. . . . . . .(cpII) = 1.06042654E+03
     S-wave velocity. . . . . . . . . . . (cs) = 2.37769121E+03


     -------------------------------
     -- Solid phase properties --
     Mass density. . . . . . . . . . (density_s) = 2.50000000E+03
     Poisson's ratio . . . . . . . . (poisson_s) = 2.49996107E-01
     First Lame parameter Lambda. . . (lambda_s) = 9.63312000E+09
     Second Lame parameter Mu. . . . . . .(mu_s) = 9.63342000E+09
     Solid bulk modulus Kappa . . . . .(kappa_s) = 1.60554000E+10
     Young's modulus E . . . . . . .  .(young_s) = 2.40834750E+10


     -------------------------------
     -- Fluid phase properties --
     Mass density. . . . . . . . . . (density_f) = 1.02000000E+03
     Fluid bulk modulus Kappa . . . . .(kappa_f) = 2.29500000E+09
     Fluid viscosity Eta . . . . . . . . (eta_f) = 0.00000000E+00


     -------------------------------
     -- Frame properties --
     First Lame parameter Lambda. . . (lambda_fr) = 3.57772000E+09
     Second Lame parameter Mu. . . . . . .(mu_fr) = 9.63342000E+09
     Frame bulk modulus Kappa . . . . .(kappa_fr) = 1.00000000E+10
     Porosity. . . . . . . . . . . . . . . .(phi) = 4.00000000E-01
     Tortuosity. . . . . . . . . . . . . . . .(c) = 2.00000000E+00
     Permeability xx component. . . . . . . . . . = 1.00000000E-09
     Permeability zx component. . . . . . . . . . = 0.00000000E+00
     Permeability zz component. . . . . . . . . . = 1.00000000E-09
     Qmu_attenuation. . . . . . . . . . . . (Qmu) = 5.00000000E+01


     -------------------------------
     -- Biot coefficients --
     -------------------------------
     D. . . . . . . . . .= 5.45614961E+10
     H. . . . . . . . . .= 2.36674199E+10
     C. . . . . . . . . .= 2.18174608E+09
     M. . . . . . . . . .= 5.78472206E+09
     Characteristic freq = 0.00000000E+00


     -------------------------------
     -- Acoustic (fluid) material --
     -------------------------------
     Material set number. . . . . . . . (jmat) =     2
     P-wave velocity. . . . . . . . . . . (cp) = 1.50000000E+03
     Mass density. . . . . . . . . . (density) = 1.02000000E+03
     Bulk modulus Kappa . . . . . . . .(kappa) = 2.29500000E+09
     QKappa_attenuation. . . . . . . .(QKappa) = 1.00000000E+01
     Qmu_attenuation. . . . . . . . . . .(Qmu) = 1.00000000E+01

 Absorbing boundaries:
   using Stacey absorbing boundary conditions

 Number of absorbing elements:          660
   nspec_left   =          220
   nspec_right  =          220
   nspec_bottom =          220
   nspec_top    =            0


 Number of free surface elements:          220


 Generating global mesh numbering (fast version)...


 Total number of elements:        48400
 decomposed as follows:

 Total number of elastic/visco/poro elements:        24200
 Total number of acoustic elements:        24200

 Approximate total number of grid points in the mesh
 (with a few duplicates coming from MPI buffers):       776161

 Approximate number of acoustic degrees of freedom in the mesh:       388081
 Approximate number of elastic degrees of freedom in the mesh:       776161
   (there are 2 degrees of freedom per point for elastic elements)

 Approximate total number of degrees of freedom in the mesh
 (sum of the two values above):      1164242

  (for simplicity viscoelastic or poroelastic elements, if any,
   are counted as elastic in the above three estimates;
   in reality they have more degrees of freedom)


 Xmin,Xmax of the whole mesh =    0.0000000000000000        4800.0000000000000     
 Zmin,Zmax of the whole mesh =    0.0000000000000000        4800.0000000000009     

 basic mesh check is successful

 Mixed acoustic/poroelastic simulation

   Beginning of fluid/solid (poroelastic) edge detection
   Checking fluid/solid (poroelastic) edge topology
   End of fluid/solid (poroelastic) edge detection

 excluding common points between acoustic absorbing edges and acoustic/poroelastic matching interfaces, if any

 setting up MPI arrays
 mesh setup done

 sources:

 *******************************
  locating force source
 *******************************


 Force source:
             original x:    1600.00000    
             original z:    2900.00000    
 closest estimate found:    0.00000000      m away
  in rank            0
  in element        29114
  at xi,gamma coordinates =  -0.33333333333334420       0.83333333333333981     


 end of force source detection


 receivers:

 Total number of receivers =            2


 ********************
  locating receivers
 ********************

 reading receiver information from the DATA/STATIONS file


 Station #            1     AA      S0001                           
             original x:    2000.00000    
             original z:    2934.00000    
   distance from source:    401.442413    
 closest estimate found:    6.43109860E-13  m away
  in element        29572
  at process            0
  at xi,gamma coordinates =   0.33333333333333665       -4.9999999999997921E-002


 Station #            2     AA      S0002                           
             original x:    2000.00000    
             original z:    1867.00000    
   distance from source:    1107.74048    
 closest estimate found:    2.27373675E-13  m away
  in element        18792
  at process            0
  at xi,gamma coordinates =   0.33333333333333665       0.14166666666668412     


 end of receiver detection

 found a total of            2  receivers, this is okay


 Preparing array allocations
   arrays for poroelastic domains
   arrays for acoustic domains
   wavefield initialization
   done initialization

 Preparing mass matrices
   initializing mass matrices
   inverting mass matrices

 Checking mesh and stability

 ********
 Model: P (or PI) velocity min,max =    1500.0000000000000        3677.3265221462343     
 Model: PII velocity min,max       =    1060.4265404855225        1060.4265404855225     
 Model: S velocity min,max         =    2377.6912105985812        2377.6912105985812     
 Model: density min,max            =    1020.0000000000000        2500.0000000000000     
 ********


 *********************************************
 *** Verification of simulation parameters ***
 *********************************************

 *** Max grid size =    21.818181818182893     
 *** Min grid size =    21.818181818181074     
 *** Max/min ratio =    1.0000000000000833     

 *** Minimum GLL point distance  =    3.7674145013673930     
 *** Average GLL point distance  =    5.4545454545452685     

 *** Minimum period resolved     =    1.8181818181819076E-002
 *** Maximum frequency resolved  =    54.999999999997293      Hz

 *** Maximum suggested time step                 =    5.1224911340869725E-004
 *** Maximum suggested (Ricker) source frequency =    21.999999999998920     

 *** for DT :    4.2000000000000002E-004
 *** Max CFL stability condition of the time scheme based on P wave velocity (must be below about 0.50 or so) =   0.40995678567910337     

 ----
 Number of points per wavelength:
 ----
   Source            1
   maximum dominant source frequency =    37.500000000000000      Hz
 
   Nb pts / lambdaPI_fmax min =    7.33333349    
   Nb pts / lambdaPI_fmax max =    17.9780407    
 
   Nb pts / lambdaPII_fmax min =    5.18430758    
   Nb pts / lambdaPII_fmax max =    5.18430758    
 
   Nb pts / lambdaS_fmax min =    11.6242685    
   Nb pts / lambdaS_fmax max =    11.6242685    

 -----------------------------------------

 histogram of min number of points per S wavelength in solid regions:

 there are        24200  elements out of        48400  in solid regions
   (i.e.,    50.0000000     % of the total)

 (too small = poor resolution of calculations -
  too big = wasting memory and CPU time)
 (threshold value is around 4.5 points per S wavelength
  in elastic regions and 5.5 per P wavelength in fluid regions):

   11.5080252      -    11.5196495               0     0.00000000      %
   11.5196495      -    11.5312738               0     0.00000000      %
   11.5312738      -    11.5428982               0     0.00000000      %
   11.5428982      -    11.5545225               0     0.00000000      %
   11.5545225      -    11.5661469               0     0.00000000      %
   11.5661469      -    11.5777712               0     0.00000000      %
   11.5777712      -    11.5893955               0     0.00000000      %
   11.5893955      -    11.6010199               0     0.00000000      %
   11.6010199      -    11.6126442               0     0.00000000      %
   11.6126442      -    11.6242685           20327     83.9958649      %
   11.6242685      -    11.6358929            3873     16.0041313      %
   11.6358929      -    11.6475163               0     0.00000000      %
   11.6475163      -    11.6591406               0     0.00000000      %
   11.6591406      -    11.6707649               0     0.00000000      %
   11.6707649      -    11.6823893               0     0.00000000      %
   11.6823893      -    11.6940136               0     0.00000000      %
   11.6940136      -    11.7056379               0     0.00000000      %
   11.7056379      -    11.7172623               0     0.00000000      %
   11.7172623      -    11.7288866               0     0.00000000      %
   11.7288866      -    11.7405109               0     0.00000000      %

 total percentage =    100.00000000000000       %

 -----------------------------------------

 histogram of min number of points per P wavelength in fluid regions:

 there are        24200  elements out of        48400  in fluid regions
   (i.e.,    50.0000000     % of the total)

 (too small = poor resolution of calculations -
  too big = wasting memory and CPU time)
 (threshold value is around 4.5 points per S wavelength
  in elastic regions and 5.5 per P wavelength in fluid regions):

   7.26000023      -    7.26733351               0     0.00000000      %
   7.26733351      -    7.27466679               0     0.00000000      %
   7.27466679      -    7.28200006               0     0.00000000      %
   7.28200006      -    7.28933334               0     0.00000000      %
   7.28933334      -    7.29666662               0     0.00000000      %
   7.29666662      -    7.30399990               0     0.00000000      %
   7.30399990      -    7.31133318               0     0.00000000      %
   7.31133318      -    7.31866646               0     0.00000000      %
   7.31866646      -    7.32600021               0     0.00000000      %
   7.32600021      -    7.33333349           19825     81.9214859      %
   7.33333349      -    7.34066677            4375     18.0785122      %
   7.34066677      -    7.34800005               0     0.00000000      %
   7.34800005      -    7.35533333               0     0.00000000      %
   7.35533333      -    7.36266661               0     0.00000000      %
   7.36266661      -    7.36999989               0     0.00000000      %
   7.36999989      -    7.37733316               0     0.00000000      %
   7.37733316      -    7.38466644               0     0.00000000      %
   7.38466644      -    7.39200020               0     0.00000000      %
   7.39200020      -    7.39933348               0     0.00000000      %
   7.39933348      -    7.40666676               0     0.00000000      %

 total percentage =    100.00000000000000       %


 total number of elements in fluid and solid regions =        48400


 Preparing image coloring
   allocating color image arrays
   locating all the pixels of color images
   total number of image pixels =      3116990
   done locating all the pixels of color images
   coloring image background based on vp

 Preparing source time function
   saving the source time function in a text file...

 Preparing attenuation
 
 done, preparation successful
 

 =========================================
 =  T i m e  e v o l u t i o n  l o o p  =
 =========================================


 Starting time iteration loop ...


 Creating color image of size         1766  x         1854  for time step            1
 drawing scalar image of part of the displacement vector...
 Color image created

 ******************************************************************
Time step number       5   t =    0.0017 s out of    2500
 ******************************************************************
 We have done   0.160064027     % of the total
 Max norm of vector field in solid (poroelastic) =    0.0000000000000000     
 Max norm of vector field in fluid (poroelastic) =    0.0000000000000000     
 Max absolute value of scalar field in fluid (acoustic) =    3.2643342856317759E-003
 Elapsed time in seconds =   0.77200007438659668     
 Elapsed time in hh:mm:ss =      0 h 00 m 00 s
 Mean elapsed time per time step in seconds =   0.15440001487731933     
 Time steps remaining =         2495
 Estimated remaining time in seconds =    385.22803711891174     
 Estimated remaining time in hh:mm:ss =      0 h 06 m 25 s
 Estimated total run time in seconds =    386.00003719329834     
 Estimated total run time in hh:mm:ss =      0 h 06 m 26 s
 The run will finish approximately on: Tue Jun 21, 2016 03:37


 ******************************************************************
Time step number     200   t =    0.0836 s out of    2500
 ******************************************************************
 We have done    7.96318531     % of the total
 Max norm of vector field in solid (poroelastic) =    0.0000000000000000     
 Max norm of vector field in fluid (poroelastic) =    0.0000000000000000     
 Max absolute value of scalar field in fluid (acoustic) =    1429.4914550781250     
 Elapsed time in seconds =    25.985000133514404     
 Elapsed time in hh:mm:ss =      0 h 00 m 25 s
 Mean elapsed time per time step in seconds =   0.12992500066757201     
 Time steps remaining =         2300
 Estimated remaining time in seconds =    298.82750153541565     
 Estimated remaining time in hh:mm:ss =      0 h 04 m 58 s
 Estimated total run time in seconds =    324.81250166893005     
 Estimated total run time in hh:mm:ss =      0 h 05 m 24 s
 The run will finish approximately on: Tue Jun 21, 2016 03:36


 Creating color image of size         1766  x         1854  for time step          200
 drawing scalar image of part of the displacement vector...
 Color image created

 ******************************************************************
Time step number     400   t =    0.1676 s out of    2500
 ******************************************************************
 We have done    15.9663868     % of the total
 Max norm of vector field in solid (poroelastic) =    0.0000000000000000     
 Max norm of vector field in fluid (poroelastic) =    0.0000000000000000     
 Max absolute value of scalar field in fluid (acoustic) =    313.18426513671875     
 Elapsed time in seconds =    51.344000101089478     
 Elapsed time in hh:mm:ss =      0 h 00 m 51 s
 Mean elapsed time per time step in seconds =   0.12836000025272370     
 Time steps remaining =         2100
 Estimated remaining time in seconds =    269.55600053071976     
 Estimated remaining time in hh:mm:ss =      0 h 04 m 29 s
 Estimated total run time in seconds =    320.90000063180923     
 Estimated total run time in hh:mm:ss =      0 h 05 m 20 s
 The run will finish approximately on: Tue Jun 21, 2016 03:36


 Creating color image of size         1766  x         1854  for time step          400
 drawing scalar image of part of the displacement vector...
 Color image created

 ******************************************************************
Time step number     600   t =    0.2516 s out of    2500
 ******************************************************************
 We have done    23.9695873     % of the total
 Max norm of vector field in solid (poroelastic) =    2.4848960881302101E-015
 Max norm of vector field in fluid (poroelastic) =    5.0553704560203638E-015
 Max absolute value of scalar field in fluid (acoustic) =    218.59008789062500     
 Elapsed time in seconds =    76.603000164031982     
 Elapsed time in hh:mm:ss =      0 h 01 m 16 s
 Mean elapsed time per time step in seconds =   0.12767166694005330     
 Time steps remaining =         1900
 Estimated remaining time in seconds =    242.57616718610129     
 Estimated remaining time in hh:mm:ss =      0 h 04 m 02 s
 Estimated total run time in seconds =    319.17916735013330     
 Estimated total run time in hh:mm:ss =      0 h 05 m 19 s
 The run will finish approximately on: Tue Jun 21, 2016 03:36


 Creating color image of size         1766  x         1854  for time step          600
 drawing scalar image of part of the displacement vector...
 Color image created

 ******************************************************************
Time step number     800   t =    0.3356 s out of    2500
 ******************************************************************
 We have done    31.9727898     % of the total
 Max norm of vector field in solid (poroelastic) =    1.4345845045227179E-007
 Max norm of vector field in fluid (poroelastic) =    1.8148124070194172E-007
 Max absolute value of scalar field in fluid (acoustic) =    177.67065429687500     
 Elapsed time in seconds =    100.99600005149841     
 Elapsed time in hh:mm:ss =      0 h 01 m 40 s
 Mean elapsed time per time step in seconds =   0.12624500006437300     
 Time steps remaining =         1700
 Estimated remaining time in seconds =    214.61650010943410     
 Estimated remaining time in hh:mm:ss =      0 h 03 m 34 s
 Estimated total run time in seconds =    315.61250016093254     
 Estimated total run time in hh:mm:ss =      0 h 05 m 15 s
 The run will finish approximately on: Tue Jun 21, 2016 03:36


 Creating color image of size         1766  x         1854  for time step          800
 drawing scalar image of part of the displacement vector...
 Color image created

 ******************************************************************
Time step number    1000   t =    0.4196 s out of    2500
 ******************************************************************
 We have done    39.9759903     % of the total
 Max norm of vector field in solid (poroelastic) =    2.6987690944224596E-003
 Max norm of vector field in fluid (poroelastic) =    3.4622023813426495E-003
 Max absolute value of scalar field in fluid (acoustic) =    213.95909118652344     
 Elapsed time in seconds =    125.13800001144409     
 Elapsed time in hh:mm:ss =      0 h 02 m 05 s
 Mean elapsed time per time step in seconds =   0.12513800001144409     
 Time steps remaining =         1500
 Estimated remaining time in seconds =    187.70700001716614     
 Estimated remaining time in hh:mm:ss =      0 h 03 m 07 s
 Estimated total run time in seconds =    312.84500002861023     
 Estimated total run time in hh:mm:ss =      0 h 05 m 12 s
 The run will finish approximately on: Tue Jun 21, 2016 03:36


 Creating color image of size         1766  x         1854  for time step         1000
 drawing scalar image of part of the displacement vector...
 Color image created

 ******************************************************************
Time step number    1200   t =    0.5036 s out of    2500
 ******************************************************************
 We have done    47.9791908     % of the total
 Max norm of vector field in solid (poroelastic) =    3.9720525965094566E-003
 Max norm of vector field in fluid (poroelastic) =    3.5592431668192148E-003
 Max absolute value of scalar field in fluid (acoustic) =    171.91688537597656     
 Elapsed time in seconds =    149.55900001525879     
 Elapsed time in hh:mm:ss =      0 h 02 m 29 s
 Mean elapsed time per time step in seconds =   0.12463250001271566     
 Time steps remaining =         1300
 Estimated remaining time in seconds =    162.02225001653036     
 Estimated remaining time in hh:mm:ss =      0 h 02 m 42 s
 Estimated total run time in seconds =    311.58125003178918     
 Estimated total run time in hh:mm:ss =      0 h 05 m 11 s
 The run will finish approximately on: Tue Jun 21, 2016 03:36


 Creating color image of size         1766  x         1854  for time step         1200
 drawing scalar image of part of the displacement vector...
 Color image created

 ******************************************************************
Time step number    1400   t =    0.5876 s out of    2500
 ******************************************************************
 We have done    55.9823914     % of the total
 Max norm of vector field in solid (poroelastic) =    6.3017462380230427E-003
 Max norm of vector field in fluid (poroelastic) =    3.3125143963843584E-003
 Max absolute value of scalar field in fluid (acoustic) =    128.16392517089844     
 Elapsed time in seconds =    174.13600015640259     
 Elapsed time in hh:mm:ss =      0 h 02 m 54 s
 Mean elapsed time per time step in seconds =   0.12438285725457328     
 Time steps remaining =         1100
 Estimated remaining time in seconds =    136.82114298003060     
 Estimated remaining time in hh:mm:ss =      0 h 02 m 16 s
 Estimated total run time in seconds =    310.95714313643316     
 Estimated total run time in hh:mm:ss =      0 h 05 m 10 s
 The run will finish approximately on: Tue Jun 21, 2016 03:36


 Creating color image of size         1766  x         1854  for time step         1400
 drawing scalar image of part of the displacement vector...
 Color image created

 ******************************************************************
Time step number    1600   t =    0.6716 s out of    2500
 ******************************************************************
 We have done    63.9855957     % of the total
 Max norm of vector field in solid (poroelastic) =    8.9989872649312019E-003
 Max norm of vector field in fluid (poroelastic) =    3.1623970717191696E-003
 Max absolute value of scalar field in fluid (acoustic) =    151.96209716796875     
 Elapsed time in seconds =    198.87000012397766     
 Elapsed time in hh:mm:ss =      0 h 03 m 18 s
 Mean elapsed time per time step in seconds =   0.12429375007748604     
 Time steps remaining =          900
 Estimated remaining time in seconds =    111.86437506973743     
 Estimated remaining time in hh:mm:ss =      0 h 01 m 51 s
 Estimated total run time in seconds =    310.73437519371510     
 Estimated total run time in hh:mm:ss =      0 h 05 m 10 s
 The run will finish approximately on: Tue Jun 21, 2016 03:36


 Creating color image of size         1766  x         1854  for time step         1600
 drawing scalar image of part of the displacement vector...
 Color image created

 ******************************************************************
Time step number    1800   t =    0.7556 s out of    2500
 ******************************************************************
 We have done    71.9887924     % of the total
 Max norm of vector field in solid (poroelastic) =    5.6794318370521069E-003
 Max norm of vector field in fluid (poroelastic) =    3.6260783672332764E-003
 Max absolute value of scalar field in fluid (acoustic) =    166.08457946777344     
 Elapsed time in seconds =    223.36900019645691     
 Elapsed time in hh:mm:ss =      0 h 03 m 43 s
 Mean elapsed time per time step in seconds =   0.12409388899803162     
 Time steps remaining =          700
 Estimated remaining time in seconds =    86.865722298622131     
 Estimated remaining time in hh:mm:ss =      0 h 01 m 26 s
 Estimated total run time in seconds =    310.23472249507904     
 Estimated total run time in hh:mm:ss =      0 h 05 m 10 s
 The run will finish approximately on: Tue Jun 21, 2016 03:36


 Creating color image of size         1766  x         1854  for time step         1800
 drawing scalar image of part of the displacement vector...
 Color image created

 ******************************************************************
Time step number    2000   t =    0.8396 s out of    2500
 ******************************************************************
 We have done    79.9919968     % of the total
 Max norm of vector field in solid (poroelastic) =    3.1890994869172573E-003
 Max norm of vector field in fluid (poroelastic) =    3.1058283057063818E-003
 Max absolute value of scalar field in fluid (acoustic) =    156.13014221191406     
 Elapsed time in seconds =    247.93099999427795     
 Elapsed time in hh:mm:ss =      0 h 04 m 07 s
 Mean elapsed time per time step in seconds =   0.12396549999713898     
 Time steps remaining =          500
 Estimated remaining time in seconds =    61.982749998569489     
 Estimated remaining time in hh:mm:ss =      0 h 01 m 01 s
 Estimated total run time in seconds =    309.91374999284744     
 Estimated total run time in hh:mm:ss =      0 h 05 m 09 s
 The run will finish approximately on: Tue Jun 21, 2016 03:36


 Creating color image of size         1766  x         1854  for time step         2000
 drawing scalar image of part of the displacement vector...
 Color image created

 ******************************************************************
Time step number    2200   t =    0.9236 s out of    2500
 ******************************************************************
 We have done    87.9952011     % of the total
 Max norm of vector field in solid (poroelastic) =    2.4042311124503613E-003
 Max norm of vector field in fluid (poroelastic) =    2.8044192586094141E-003
 Max absolute value of scalar field in fluid (acoustic) =    139.11293029785156     
 Elapsed time in seconds =    272.75300002098083     
 Elapsed time in hh:mm:ss =      0 h 04 m 32 s
 Mean elapsed time per time step in seconds =   0.12397863637317311     
 Time steps remaining =          300
 Estimated remaining time in seconds =    37.193590911951929     
 Estimated remaining time in hh:mm:ss =      0 h 00 m 37 s
 Estimated total run time in seconds =    309.94659093293274     
 Estimated total run time in hh:mm:ss =      0 h 05 m 09 s
 The run will finish approximately on: Tue Jun 21, 2016 03:36


 Creating color image of size         1766  x         1854  for time step         2200
 drawing scalar image of part of the displacement vector...
 Color image created

 ******************************************************************
Time step number    2400   t =    1.0076 s out of    2500
 ******************************************************************
 We have done    95.9983978     % of the total
 Max norm of vector field in solid (poroelastic) =    2.0864726975560188E-003
 Max norm of vector field in fluid (poroelastic) =    2.7360862586647272E-003
 Max absolute value of scalar field in fluid (acoustic) =    126.78255462646484     
 Elapsed time in seconds =    297.55900001525879     
 Elapsed time in hh:mm:ss =      0 h 04 m 57 s
 Mean elapsed time per time step in seconds =   0.12398291667302450     
 Time steps remaining =          100
 Estimated remaining time in seconds =    12.398291667302450     
 Estimated remaining time in hh:mm:ss =      0 h 00 m 12 s
 Estimated total run time in seconds =    309.95729168256122     
 Estimated total run time in hh:mm:ss =      0 h 05 m 09 s
 The run will finish approximately on: Tue Jun 21, 2016 03:36


 Creating color image of size         1766  x         1854  for time step         2400
 drawing scalar image of part of the displacement vector...
 Color image created

 ******************************************************************
Time step number    2500   t =    1.0496 s out of    2500
 ******************************************************************
 We have done    100.000000     % of the total
 Max norm of vector field in solid (poroelastic) =    1.9261249108240008E-003
 Max norm of vector field in fluid (poroelastic) =    2.7297588530927896E-003
 Max absolute value of scalar field in fluid (acoustic) =    121.21468353271484     
 Elapsed time in seconds =    310.51800012588501     
 Elapsed time in hh:mm:ss =      0 h 05 m 10 s
 Mean elapsed time per time step in seconds =   0.12420720005035400     
 Time steps remaining =            0
 Estimated remaining time in seconds =    0.0000000000000000     
 Estimated remaining time in hh:mm:ss =      0 h 00 m 00 s
 Estimated total run time in seconds =    310.51800012588501     
 Estimated total run time in hh:mm:ss =      0 h 05 m 10 s


 Creating color image of size         1766  x         1854  for time step         2500
 drawing scalar image of part of the displacement vector...
 Color image created


 -------------------------------------------------------------------------------
 -------------------------------------------------------------------------------
 Program SPECFEM2D: 
 -------------------------------------------------------------------------------
 -------------------------------------------------------------------------------
 Test for 2 layers: acoustic/poroelastic           
 -------------------------------------------------------------------------------
 -------------------------------------------------------------------------------
 D a t e : 21 - 06 - 2016                                 T i m e  : 03:35:45
 -------------------------------------------------------------------------------
 -------------------------------------------------------------------------------

see results in directory: OUTPUT_FILES/

done
Tue Jun 21 03:35:45 AST 2016

