running example: Sat Feb  9 16:06:26 AST 2019

setting up example...


running mesher on 4 processors...


 **********************************************
 *** Specfem 2-D Mesher - MPI version       ***
 **********************************************

 Running Git version of the code corresponding to undefined in the case of old tar ball builds
 dating undefined in the case of old tar ball builds

 Reading the parameter file...

 Title of the simulation: Test for 2 layers: acoustic/poroelastic


 Receiver lines:
   Nb of line sets =            2

 Materials:
   Nb of solid, fluid or porous materials =            2

 --------
 Material #           1  isotropic
 rho_s, kappa_s         =    2500.0000000000000        16055400000.000000
 rho_f, kappa_f, eta_f  =    1020.0000000000000        2295000000.0000000        0.0000000000000000
 phi, tortuosity        =   0.40000000000000002        2.0000000000000000
 permxx, permxz, permzz =    1.0000000000000001E-009   0.0000000000000000        1.0000000000000001E-009
 kappa_fr, mu_fr, Qmu   =    10000000000.000000        9633420000.0000000        50.000000000000000
 Material is porous
 --------
 Material #           2  isotropic
 rho,cp,cs   =    1020.0000000000000        1500.0000000000000        0.0000000000000000
 Qkappa, Qmu =    10.000000000000000        10.000000000000000
 Material is fluid
 --------

 Mesh from internal meshing:

 Reading interface data from file: ./DATA/./interfaces.dat
 Reading            2  points for interface            1
 Reading            2  points for interface            2
 Reading            2  points for interface            3

 Total number of layers in z direction =            2
 There are          110  spectral elements along Z in layer            1
 There are          110  spectral elements along Z in layer            2

 Total number of spectral elements along X =          220
 Total number of spectral elements along Z =          220

 Regions:
   Nb of regions in the mesh =            2

 ------
 Region            1
 IX from            1  to          220
 IZ from            1  to          110
 Material #            1  isotropic
 Material is poroelastic
 ------
 Region            2
 IX from            1  to          220
 IZ from          111  to          220
 Material #            2  isotropic
 Material is fluid
 vp     =    1500.00000
 vs     =    0.00000000
 rho    =    1020.00000
 Poisson's ratio =   0.500000000
 QKappa =    10.0000000
 Qmu    =    10.0000000
 ------
 Total number of spectral elements         =        48400


 Parameter file successfully read

 The mesh contains        48400  elements

 Control elements have            9  nodes

 Source           1
   Position xs, zs =    1600.0000000000000        2900.0000000000000

   Source type (1=force, 2=moment tensor, 3=Rayleigh wave, 4=plane incident P, 5=plane incident S):            1
   Force source:
   Angle of the source (deg) =    0.0000000000000000
   Multiplying factor  =    10000000000.000000

   Time function type (1=Ricker, 2=First derivative, 3=Gaussian, 4=Dirac, 5=Heaviside, 8=Read from file, 9=burst):           1
   Ricker wavelet (second-derivative):
   Frequency, delay =    15.000000000000000        0.0000000000000000

 Reading interface data from file: ./DATA/./interfaces.dat

 Mesh dimensions:
   Min and max value of X in the grid =    0.0000000000000000        4800.0000000000000
   Min and max value of Z in the grid =    0.0000000000000000        4800.0000000000009


 ************ Computing elements load ************
 Number of elastic elements :           0
 Number of acoustic elements :       24200
 Number of viscoelastic elements :           0
 Number of elastic PML elements :           0
 Number of acoustic PML elements :           0
 Number of viscoelastic PML elements :           0
 *************************************************


 Partitioning method: SCOTCH

 nedges_coupled (acoustic/elastic)     =            0
 nedges_coupled (acoustic/poroelastic) =          220
   after iteration            1 repartitioning of all coupled elements done
 nedges_coupled (poroelastic/elastic)  =            0

 slice            0  has number of spectral elements =        8515
 slice            1  has number of spectral elements =       16081
 slice            2  has number of spectral elements =        8402
 slice            3  has number of spectral elements =       15402

 Position (x,z) of the source =    1600.0000000000000        2900.0000000000000


 writing the ./DATA/STATIONS file


 There are            2  receivers

 Target positions (x,z) of the            2  receivers

 Receiver            1  =    2000.0000000000000        2934.0000000000000
 Receiver            2  =    2000.0000000000000        1867.0000000000000

 This will be a parallel simulation on            4  processor cores


running solver on 4 processors...


 **********************************************
 **** Specfem 2-D Solver - MPI version     ****
 **********************************************

 Running Git version of the code corresponding to undefined in the case of old tar ball builds
 dating undefined in the case of old tar ball builds

 There are            4  MPI processes
 Processes are numbered from 0 to            3

 There is a total of            4  slices


 NDIM =            2

 NGLLX =            5
 NGLLZ =            5

 using single precision for the calculations

 smallest and largest possible floating-point numbers are:    1.17549435E-38   3.40282347E+38


 -------------------------------------------------------------------------------
 -------------------------------------------------------------------------------
 Program SPECFEM2D:
 -------------------------------------------------------------------------------
 -------------------------------------------------------------------------------
 Test for 2 layers: acoustic/poroelastic
 -------------------------------------------------------------------------------
 -------------------------------------------------------------------------------
 D a t e : 09 - 02 - 2019                                 T i m e  : 16:06:27
 -------------------------------------------------------------------------------
 -------------------------------------------------------------------------------


 C o n t r o l
 =============

     Number of spectral element control nodes. . .(npgeo) =   34453
     Number of space dimensions. . . . . . . . . . (NDIM) =       2


 C o n t r o l
 =============

     Display frequency . . . .(NSTEP_BETWEEN_OUTPUT_INFO) =    200
     Color display . . . . . . . . . . . . . . . (colors) =      1
      == 0     black and white display
      == 1     color display
     Numbered mesh . . . . . . . . . . . . . . .(numbers) =      0
      == 0     do not number the mesh
      == 1     number the mesh


 C o n t r o l
 =============

     Seismograms recording type . . . . . . .(seismotype) = 2
     Angle for first line of receivers. . . . .(anglerec) =   0.00


 C o n t r o l
 =============

     Read external initial field. . . . . .(initialfield) =      F
     Add Bielak conditions (add_Bielak_conditions_bottom) =      F
     Add Bielak conditions .(add_Bielak_conditions_right) =      F
     Add Bielak conditions . .(add_Bielak_conditions_top) =      F
     Add Bielak conditions. .(add_Bielak_conditions_left) =      F
     Attenuation in solid . . .(ATTENUATION_VISCOELASTIC) =      F
     Attenuation in fluid . . (ATTENUATION_VISCOACOUSTIC) =      F
     Save grid in ASCII file or not . (output_grid_ASCII) =      F
     Save a file with total energy or not.(OUTPUT_ENERGY) =      F


 C o n t r o l
 =============

     Vector display type . . . . . . . . .(imagetype_postscript) =      1
     Percentage of cut for vector plots. . . . . . . .(cutsnaps) =   1.00
     Subsampling of velocity model display. (subsamp_postscript) =      1


 I t e r a t i o n s
 ===================

     Number of time iterations . . . . .(NSTEP) =    2500
     Time step increment. . . . . . . . . .(DT) =   4.200000E-04
     Total simulation duration . . . . . (ttot) =   1.050000E+00


     Source Type. . . . . . . . . . . . . . = Collocated Force
     X-position (meters). . . . . . . . . . =    1.6000000000E+03
     Y-position (meters). . . . . . . . . . =    2.9000000000E+03
     Fundamental frequency (Hz) . . . . . . =    1.5000000000E+01
     Time delay (s) . . . . . . . . . . . . =    0.0000000000E+00
     Multiplying factor . . . . . . . . . . =    1.0000000000E+10
     Angle from vertical direction (deg). . =    0.0000000000E+00

     Onset time. . . . . . =   -8.0000000000000002E-002
     Fundamental period. . =    6.6666666666666666E-002
     Fundamental frequency =    15.000000000000000
     The onset time is ok

     -- Spectral Elements --


     Number of spectral elements . . . . . . . . .  (nspec) =  48400
     Number of control nodes per element . . . . . (ngnod) =      9
     Number of points in X-direction . . . . . . . (NGLLX) =      5
     Number of points in Y-direction . . . . . . . (NGLLZ) =      5
     Number of points per element. . . . . . (NGLLX*NGLLZ) =     25
     Number of points for display . . . . . . (pointsdisp) =      6
     Number of element material sets . . . . . . . (numat) =      2
     Number of acoustic forcing elements (nelem_acforcing) =      0
     Number of acoustic free surf (nelem_acoustic_surface) =    220


 M a t e r i a l   s e t s :   2 D  (p o r o) e l a s t i c i t y
 ======================================================

     Number of material sets . . . . . . (numat) =     2


     ----------------------------------------
     -- Poroelastic isotropic material --
     ----------------------------------------
     Material set number. . . . . . . . (jmat) =     1
     First P-wave velocity. . . . . . . .(cpI) = 3.67732652E+03
     Second P-wave velocity. . . . . . .(cpII) = 1.06042654E+03
     S-wave velocity. . . . . . . . . . . (cs) = 2.37769121E+03


     -------------------------------
     -- Solid phase properties --
     Mass density. . . . . . . . . . (density_s) = 2.50000000E+03
     Poisson's ratio . . . . . . . . (poisson_s) = 2.49996107E-01
     First Lame parameter Lambda. . . (lambda_s) = 9.63312000E+09
     Second Lame parameter Mu. . . . . . .(mu_s) = 9.63342000E+09
     Solid bulk modulus Kappa . . . . .(kappa_s) = 1.60554000E+10
     Young's modulus E . . . . . . .  .(young_s) = 2.40834750E+10


     -------------------------------
     -- Fluid phase properties --
     Mass density. . . . . . . . . . (density_f) = 1.02000000E+03
     Fluid bulk modulus Kappa . . . . .(kappa_f) = 2.29500000E+09
     Fluid viscosity Eta . . . . . . . . (eta_f) = 0.00000000E+00


     -------------------------------
     -- Frame properties --
     First Lame parameter Lambda. . . (lambda_fr) = 3.57772000E+09
     Second Lame parameter Mu. . . . . . .(mu_fr) = 9.63342000E+09
     Frame bulk modulus Kappa . . . . .(kappa_fr) = 1.00000000E+10
     Porosity. . . . . . . . . . . . . . . .(phi) = 4.00000000E-01
     Tortuosity. . . . . . . . . . . . . . . .(c) = 2.00000000E+00
     Permeability xx component. . . . . . . . . . = 1.00000000E-09
     Permeability zx component. . . . . . . . . . = 0.00000000E+00
     Permeability zz component. . . . . . . . . . = 1.00000000E-09
     Qmu_attenuation. . . . . . . . . . . . (Qmu) = 5.00000000E+01


     -------------------------------
     -- Biot coefficients --
     -------------------------------
     D. . . . . . . . . .= 5.45614961E+10
     H. . . . . . . . . .= 2.36674199E+10
     C. . . . . . . . . .= 2.18174608E+09
     M. . . . . . . . . .= 5.78472206E+09
     Characteristic freq = 0.00000000E+00


     -------------------------------
     -- Acoustic (fluid) material --
     -------------------------------
     Material set number. . . . . . . . (jmat) =     2
     P-wave velocity. . . . . . . . . . . (cp) = 1.50000000E+03
     Mass density. . . . . . . . . . (density) = 1.02000000E+03
     Bulk modulus Kappa . . . . . . . .(kappa) = 2.29500000E+09
     QKappa_attenuation. . . . . . . .(QKappa) = 1.00000000E+01
     Qmu_attenuation. . . . . . . . . . .(Qmu) = 1.00000000E+01

 Absorbing boundaries:
   using Stacey absorbing boundary conditions

 Number of absorbing elements:          660
   nspec_left   =          220
   nspec_right  =          220
   nspec_bottom =          220
   nspec_top    =            0


 Number of free surface elements:          220

 Setting up mesh

 Generating global mesh numbering (fast version)...

 Mesh numbering:
   Total number of elements:        48400

   Total number of acoustic elements           =        24200
   Total number of elastic/visco/poro elements =        24200

 Approximate total number of grid points in the mesh
 (with a few duplicates coming from MPI buffers):       778160

 Approximate number of acoustic degrees of freedom in the mesh:       389080
 Approximate number of elastic degrees of freedom in the mesh:       778160
   (there are 2 degrees of freedom per point for elastic elements)

 Approximate total number of degrees of freedom in the mesh
 (sum of the two values above):      1167240

  (for simplicity viscoelastic or poroelastic elements, if any,
   are counted as elastic in the above three estimates;
   in reality they have more degrees of freedom)

 Mesh dimensions:
   Xmin,Xmax of the whole mesh =    0.0000000000000000        4800.0000000000000
   Zmin,Zmax of the whole mesh =    0.0000000000000000        4800.0000000000009

 Domains:
   total number of acoustic elements        =        24200
   total number of elastic elements         =            0
   total number of poroelastic elements     =        24200

 Setting up MPI communication arrays

   maximum number of MPI interfaces (for a single slice) =            3

   total MPI interface points:         4004

   checking acoustic interfaces:
   total number of global acoustic interface points:          882
   total number of global points assembled by acoustic MPI interfaces:         882
   interfaces okay

   master process:
   number of MPI interfaces in acoustic domain    =            0
   number of MPI interfaces in elastic domain     =            0
   number of MPI interfaces in poroelastic domain =            3

   number of outer elements  =          212
   number of inner elements  =         8303

   percentage of outer elements    2.48972321     %
   percentage of inner elements    97.5102768     %

   number of global nodes in outer elements  =         4245
   number of global nodes in inner elements  =       133625

   determining communication phases:
   acoustic domains:
   total number of outer/inner elements =          220       23980
   total percentage of outer elements   0.909088135     %
   total percentage of inner elements    99.0909119     %

   poroelastic domains:
   total number of outer/inner elements =          773       23427
   total percentage of outer elements    3.19421387     %
   total percentage of inner elements    96.8057861     %

 All mesh setup done successfully

 sources:

 *******************************
  locating force source
 *******************************


 Force source:
             original x:    1600.00000
             original z:    2900.00000
 Closest estimate found:    0.00000000      m away
  in rank            3
  in element         6324
  in acoustic domain
  at xi,gamma coordinates =  -0.33333333333334420       0.83333333333333981


 end of force source detection


 receivers:

 Total number of receivers =            2


 ********************
  locating receivers
 ********************

 reading receiver information from the ./DATA/STATIONS file


 Station #            1     AA      S0001
             original x:    2000.00000
             original z:    2934.00000
 Closest estimate found:    6.43109860E-13  m away
  in element         6550
  in rank            3
  at xi,gamma coordinates =   0.33333333333333665       -4.9999999999997921E-002
 Distance from source:    401.442413      m


 Station #            2     AA      S0002
             original x:    2000.00000
             original z:    1867.00000
 Closest estimate found:    2.27373675E-13  m away
  in element         1383
  in rank            3
  at xi,gamma coordinates =   0.33333333333333665       0.14166666666668412
 Distance from source:    1107.74048      m


 end of receiver detection

 found a total of            2  receivers, this is okay


 Preparing array allocations
   arrays for poroelastic domains
   arrays for acoustic domains
   wavefield initialization
   done initialization

 Preparing mass matrices
   initializing mass matrices
   inverting mass matrices

 Preparing image coloring

 Checking mesh and stability

 ********
 Model: P (or PI) velocity min,max =    1500.0000000000000        3677.3265221462343
 Model: PII velocity min,max       =    1060.4265404855225        1060.4265404855225
 Model: S velocity min,max         =    2377.6912105985812        2377.6912105985812
 Model: density min,max            =    1020.0000000000000        2500.0000000000000
 ********


 *********************************************
 *** Verification of simulation parameters ***
 *********************************************

 *** Max grid size =    21.818181818182893
 *** Min grid size =    21.818181818181074
 *** Max/min ratio =    1.0000000000000833

 *** Minimum GLL point distance  =    3.7674145013673930
 *** Average GLL point distance  =    5.4545454545452685

 *** Minimum period resolved     =    1.8181818181819076E-002
 *** Maximum frequency resolved  =    54.999999999997293      Hz

 *** Maximum suggested time step                 =    5.1224911340869725E-004
 *** Maximum suggested (Ricker) source frequency =    21.999999999998920

 *** for DT :    4.2000000000000002E-004
 *** Max CFL stability condition of the time scheme based on P wave velocity (must be below about 0.50 or so) =   0.40995678567910337

 ----
 Number of points per wavelength:
 ----
   Source            1
   maximum dominant source frequency =    37.500000000000000      Hz

   Nb pts / lambdaPI_fmax min =    7.33333349
   Nb pts / lambdaPI_fmax max =    17.9780407

   Nb pts / lambdaPII_fmax min =    5.18430758
   Nb pts / lambdaPII_fmax max =    5.18430758

   Nb pts / lambdaS_fmax min =    11.6242685
   Nb pts / lambdaS_fmax max =    11.6242685

 -----------------------------------------

 histogram of min number of points per S wavelength in solid regions:

 there are        24200  elements out of        48400  in solid regions
   (i.e.,    50.0000000     % of the total)

 (too small = poor resolution of calculations -
  too big = wasting memory and CPU time)
 (threshold value is around 4.5 points per S wavelength
  in elastic regions and 5.5 per P wavelength in fluid regions):

   11.5080252      -    11.5196495               0     0.00000000      %
   11.5196495      -    11.5312738               0     0.00000000      %
   11.5312738      -    11.5428982               0     0.00000000      %
   11.5428982      -    11.5545225               0     0.00000000      %
   11.5545225      -    11.5661469               0     0.00000000      %
   11.5661469      -    11.5777712               0     0.00000000      %
   11.5777712      -    11.5893955               0     0.00000000      %
   11.5893955      -    11.6010199               0     0.00000000      %
   11.6010199      -    11.6126442               0     0.00000000      %
   11.6126442      -    11.6242685           20327     83.9958649      %
   11.6242685      -    11.6358929            3873     16.0041313      %
   11.6358929      -    11.6475163               0     0.00000000      %
   11.6475163      -    11.6591406               0     0.00000000      %
   11.6591406      -    11.6707649               0     0.00000000      %
   11.6707649      -    11.6823893               0     0.00000000      %
   11.6823893      -    11.6940136               0     0.00000000      %
   11.6940136      -    11.7056379               0     0.00000000      %
   11.7056379      -    11.7172623               0     0.00000000      %
   11.7172623      -    11.7288866               0     0.00000000      %
   11.7288866      -    11.7405109               0     0.00000000      %

 total percentage =    100.00000000000000       %

 -----------------------------------------

 histogram of min number of points per P wavelength in fluid regions:

 there are        24200  elements out of        48400  in fluid regions
   (i.e.,    50.0000000     % of the total)

 (too small = poor resolution of calculations -
  too big = wasting memory and CPU time)
 (threshold value is around 4.5 points per S wavelength
  in elastic regions and 5.5 per P wavelength in fluid regions):

   7.26000023      -    7.26733351               0     0.00000000      %
   7.26733351      -    7.27466679               0     0.00000000      %
   7.27466679      -    7.28200006               0     0.00000000      %
   7.28200006      -    7.28933334               0     0.00000000      %
   7.28933334      -    7.29666662               0     0.00000000      %
   7.29666662      -    7.30399990               0     0.00000000      %
   7.30399990      -    7.31133318               0     0.00000000      %
   7.31133318      -    7.31866646               0     0.00000000      %
   7.31866646      -    7.32600021               0     0.00000000      %
   7.32600021      -    7.33333349           19825     81.9214859      %
   7.33333349      -    7.34066677            4375     18.0785122      %
   7.34066677      -    7.34800005               0     0.00000000      %
   7.34800005      -    7.35533333               0     0.00000000      %
   7.35533333      -    7.36266661               0     0.00000000      %
   7.36266661      -    7.36999989               0     0.00000000      %
   7.36999989      -    7.37733316               0     0.00000000      %
   7.37733316      -    7.38466644               0     0.00000000      %
   7.38466644      -    7.39200020               0     0.00000000      %
   7.39200020      -    7.39933348               0     0.00000000      %
   7.39933348      -    7.40666676               0     0.00000000      %

 total percentage =    100.00000000000000       %


 total number of elements in fluid and solid regions =        48400


 Preparing source time function

 Preparing material arrays

 Preparing image coloring
   allocating color image arrays
   locating all the pixels of color images
   total number of image pixels =      3131130
   done locating all the pixels of color images
   coloring image background based on vp

 done, preparation successful


 =========================================
 =  T i m e  e v o l u t i o n  l o o p  =
 =========================================


 Starting time iteration loop ...


 ******************************************************************
Time step number       5   t =    0.0017 s out of    2500
 ******************************************************************
 We have done   0.160064027     % of the total
 Max norm of vector field in solid (poroelastic) =    0.00000000
 Max norm of vector field in fluid (poroelastic) =    0.00000000
 Max absolute value of scalar field in fluid (acoustic) =    3.26433429E-03
 Elapsed time in seconds =   0.14000010490417480
 Elapsed time in hh:mm:ss =      0 h 00 m 00 s
 Mean elapsed time per time step in seconds =    2.8000020980834962E-002
 Time steps remaining =         2495
 Estimated remaining time in seconds =    69.860052347183228
 Estimated remaining time in hh:mm:ss =      0 h 01 m 09 s
 Estimated total run time in seconds =    70.000052452087402
 Estimated total run time in hh:mm:ss =      0 h 01 m 10 s
 The run will finish approximately on: Sat Feb 09, 2019 16:08


 Creating color image of size         1770  x         1858  for time step            5
 drawing scalar image of the forward wavefield displacement...
 Color image maximum amplitude =    2.3080449409462744E-006
 Color image created

 Creating color image of size         1770  x         1858  for time step          100
 drawing scalar image of the forward wavefield displacement...
 Color image maximum amplitude =    2.9419142752885818E-002
 Color image created

 ******************************************************************
Time step number     200   t =    0.0836 s out of    2500
 ******************************************************************
 We have done    7.96318531     % of the total
 Max norm of vector field in solid (poroelastic) =    0.00000000
 Max norm of vector field in fluid (poroelastic) =    0.00000000
 Max absolute value of scalar field in fluid (acoustic) =    1429.49170
 Elapsed time in seconds =    7.6140000820159912
 Elapsed time in hh:mm:ss =      0 h 00 m 07 s
 Mean elapsed time per time step in seconds =    3.8070000410079956E-002
 Time steps remaining =         2300
 Estimated remaining time in seconds =    87.561000943183899
 Estimated remaining time in hh:mm:ss =      0 h 01 m 27 s
 Estimated total run time in seconds =    95.175001025199890
 Estimated total run time in hh:mm:ss =      0 h 01 m 35 s
 The run will finish approximately on: Sat Feb 09, 2019 16:08


 Creating color image of size         1770  x         1858  for time step          200
 drawing scalar image of the forward wavefield displacement...
 Color image maximum amplitude =   0.14274398982524872
 Color image created

 Creating color image of size         1770  x         1858  for time step          300
 drawing scalar image of the forward wavefield displacement...
 Color image maximum amplitude =    2.5308506563305855E-002
 Color image created

 ******************************************************************
Time step number     400   t =    0.1676 s out of    2500
 ******************************************************************
 We have done    15.9663868     % of the total
 Max norm of vector field in solid (poroelastic) =    0.00000000
 Max norm of vector field in fluid (poroelastic) =    0.00000000
 Max absolute value of scalar field in fluid (acoustic) =    313.184204
 Elapsed time in seconds =    15.093000173568726
 Elapsed time in hh:mm:ss =      0 h 00 m 15 s
 Mean elapsed time per time step in seconds =    3.7732500433921817E-002
 Time steps remaining =         2100
 Estimated remaining time in seconds =    79.238250911235809
 Estimated remaining time in hh:mm:ss =      0 h 01 m 19 s
 Estimated total run time in seconds =    94.331251084804535
 Estimated total run time in hh:mm:ss =      0 h 01 m 34 s
 The run will finish approximately on: Sat Feb 09, 2019 16:08


 Creating color image of size         1770  x         1858  for time step          400
 drawing scalar image of the forward wavefield displacement...
 Color image maximum amplitude =    1.8479047343134880E-002
 Color image created

 Creating color image of size         1770  x         1858  for time step          500
 drawing scalar image of the forward wavefield displacement...
 Color image maximum amplitude =    1.5381624922156334E-002
 Color image created

 ******************************************************************
Time step number     600   t =    0.2516 s out of    2500
 ******************************************************************
 We have done    23.9695873     % of the total
 Max norm of vector field in solid (poroelastic) =    2.48489016E-15
 Max norm of vector field in fluid (poroelastic) =    5.05535521E-15
 Max absolute value of scalar field in fluid (acoustic) =    218.590057
 Elapsed time in seconds =    24.059000015258789
 Elapsed time in hh:mm:ss =      0 h 00 m 24 s
 Mean elapsed time per time step in seconds =    4.0098333358764650E-002
 Time steps remaining =         1900
 Estimated remaining time in seconds =    76.186833381652832
 Estimated remaining time in hh:mm:ss =      0 h 01 m 16 s
 Estimated total run time in seconds =    100.24583339691162
 Estimated total run time in hh:mm:ss =      0 h 01 m 40 s
 The run will finish approximately on: Sat Feb 09, 2019 16:08


 Creating color image of size         1770  x         1858  for time step          600
 drawing scalar image of the forward wavefield displacement...
 Color image maximum amplitude =    1.3336601667106152E-002
 Color image created

 Creating color image of size         1770  x         1858  for time step          700
 drawing scalar image of the forward wavefield displacement...
 Color image maximum amplitude =    1.2044614180922508E-002
 Color image created

 ******************************************************************
Time step number     800   t =    0.3356 s out of    2500
 ******************************************************************
 We have done    31.9727898     % of the total
 Max norm of vector field in solid (poroelastic) =    1.43458422E-07
 Max norm of vector field in fluid (poroelastic) =    1.81480942E-07
 Max absolute value of scalar field in fluid (acoustic) =    177.670578
 Elapsed time in seconds =    32.692000150680542
 Elapsed time in hh:mm:ss =      0 h 00 m 32 s
 Mean elapsed time per time step in seconds =    4.0865000188350681E-002
 Time steps remaining =         1700
 Estimated remaining time in seconds =    69.470500320196152
 Estimated remaining time in hh:mm:ss =      0 h 01 m 09 s
 Estimated total run time in seconds =    102.16250047087669
 Estimated total run time in hh:mm:ss =      0 h 01 m 42 s
 The run will finish approximately on: Sat Feb 09, 2019 16:08


 Creating color image of size         1770  x         1858  for time step          800
 drawing scalar image of the forward wavefield displacement...
 Color image maximum amplitude =    1.1023693718016148E-002
 Color image created

 Creating color image of size         1770  x         1858  for time step          900
 drawing scalar image of the forward wavefield displacement...
 Color image maximum amplitude =    1.0200677439570427E-002
 Color image created

 ******************************************************************
Time step number    1000   t =    0.4196 s out of    2500
 ******************************************************************
 We have done    39.9759903     % of the total
 Max norm of vector field in solid (poroelastic) =    2.69877305E-03
 Max norm of vector field in fluid (poroelastic) =    3.46220634E-03
 Max absolute value of scalar field in fluid (acoustic) =    213.959030
 Elapsed time in seconds =    41.486999988555908
 Elapsed time in hh:mm:ss =      0 h 00 m 41 s
 Mean elapsed time per time step in seconds =    4.1486999988555907E-002
 Time steps remaining =         1500
 Estimated remaining time in seconds =    62.230499982833862
 Estimated remaining time in hh:mm:ss =      0 h 01 m 02 s
 Estimated total run time in seconds =    103.71749997138977
 Estimated total run time in hh:mm:ss =      0 h 01 m 43 s
 The run will finish approximately on: Sat Feb 09, 2019 16:08


 Creating color image of size         1770  x         1858  for time step         1000
 drawing scalar image of the forward wavefield displacement...
 Color image maximum amplitude =    1.0911068879067898E-002
 Color image created

 Creating color image of size         1770  x         1858  for time step         1100
 drawing scalar image of the forward wavefield displacement...
 Color image maximum amplitude =    8.9856991544365883E-003
 Color image created

 ******************************************************************
Time step number    1200   t =    0.5036 s out of    2500
 ******************************************************************
 We have done    47.9791908     % of the total
 Max norm of vector field in solid (poroelastic) =    3.97205865E-03
 Max norm of vector field in fluid (poroelastic) =    3.55924363E-03
 Max absolute value of scalar field in fluid (acoustic) =    171.916946
 Elapsed time in seconds =    49.394000053405762
 Elapsed time in hh:mm:ss =      0 h 00 m 49 s
 Mean elapsed time per time step in seconds =    4.1161666711171468E-002
 Time steps remaining =         1300
 Estimated remaining time in seconds =    53.510166724522911
 Estimated remaining time in hh:mm:ss =      0 h 00 m 53 s
 Estimated total run time in seconds =    102.90416677792868
 Estimated total run time in hh:mm:ss =      0 h 01 m 42 s
 The run will finish approximately on: Sat Feb 09, 2019 16:08


 Creating color image of size         1770  x         1858  for time step         1200
 drawing scalar image of the forward wavefield displacement...
 Color image maximum amplitude =    8.5254870355129242E-003
 Color image created

 Creating color image of size         1770  x         1858  for time step         1300
 drawing scalar image of the forward wavefield displacement...
 Color image maximum amplitude =    8.1686954945325851E-003
 Color image created

 ******************************************************************
Time step number    1400   t =    0.5876 s out of    2500
 ******************************************************************
 We have done    55.9823914     % of the total
 Max norm of vector field in solid (poroelastic) =    6.30174903E-03
 Max norm of vector field in fluid (poroelastic) =    3.31251463E-03
 Max absolute value of scalar field in fluid (acoustic) =    128.163879
 Elapsed time in seconds =    57.503000020980835
 Elapsed time in hh:mm:ss =      0 h 00 m 57 s
 Mean elapsed time per time step in seconds =    4.1073571443557742E-002
 Time steps remaining =         1100
 Estimated remaining time in seconds =    45.180928587913513
 Estimated remaining time in hh:mm:ss =      0 h 00 m 45 s
 Estimated total run time in seconds =    102.68392860889435
 Estimated total run time in hh:mm:ss =      0 h 01 m 42 s
 The run will finish approximately on: Sat Feb 09, 2019 16:08


 Creating color image of size         1770  x         1858  for time step         1400
 drawing scalar image of the forward wavefield displacement...
 Color image maximum amplitude =    7.8566735610365868E-003
 Color image created

 Creating color image of size         1770  x         1858  for time step         1500
 drawing scalar image of the forward wavefield displacement...
 Color image maximum amplitude =    8.1522604450583458E-003
 Color image created

 ******************************************************************
Time step number    1600   t =    0.6716 s out of    2500
 ******************************************************************
 We have done    63.9855957     % of the total
 Max norm of vector field in solid (poroelastic) =    8.99898913E-03
 Max norm of vector field in fluid (poroelastic) =    3.16239591E-03
 Max absolute value of scalar field in fluid (acoustic) =    151.962082
 Elapsed time in seconds =    66.065999984741211
 Elapsed time in hh:mm:ss =      0 h 01 m 06 s
 Mean elapsed time per time step in seconds =    4.1291249990463255E-002
 Time steps remaining =          900
 Estimated remaining time in seconds =    37.162124991416931
 Estimated remaining time in hh:mm:ss =      0 h 00 m 37 s
 Estimated total run time in seconds =    103.22812497615814
 Estimated total run time in hh:mm:ss =      0 h 01 m 43 s
 The run will finish approximately on: Sat Feb 09, 2019 16:08


 Creating color image of size         1770  x         1858  for time step         1600
 drawing scalar image of the forward wavefield displacement...
 Color image maximum amplitude =    8.9227836579084396E-003
 Color image created

 Creating color image of size         1770  x         1858  for time step         1700
 drawing scalar image of the forward wavefield displacement...
 Color image maximum amplitude =    7.8904153779149055E-003
 Color image created

 ******************************************************************
Time step number    1800   t =    0.7556 s out of    2500
 ******************************************************************
 We have done    71.9887924     % of the total
 Max norm of vector field in solid (poroelastic) =    5.67942811E-03
 Max norm of vector field in fluid (poroelastic) =    3.62607976E-03
 Max absolute value of scalar field in fluid (acoustic) =    166.084549
 Elapsed time in seconds =    75.190000057220459
 Elapsed time in hh:mm:ss =      0 h 01 m 15 s
 Mean elapsed time per time step in seconds =    4.1772222254011365E-002
 Time steps remaining =          700
 Estimated remaining time in seconds =    29.240555577807957
 Estimated remaining time in hh:mm:ss =      0 h 00 m 29 s
 Estimated total run time in seconds =    104.43055563502841
 Estimated total run time in hh:mm:ss =      0 h 01 m 44 s
 The run will finish approximately on: Sat Feb 09, 2019 16:08


 Creating color image of size         1770  x         1858  for time step         1800
 drawing scalar image of the forward wavefield displacement...
 Color image maximum amplitude =    7.1552731096744537E-003
 Color image created

 Creating color image of size         1770  x         1858  for time step         1900
 drawing scalar image of the forward wavefield displacement...
 Color image maximum amplitude =    6.5632970072329044E-003
 Color image created

 ******************************************************************
Time step number    2000   t =    0.8396 s out of    2500
 ******************************************************************
 We have done    79.9919968     % of the total
 Max norm of vector field in solid (poroelastic) =    3.18910345E-03
 Max norm of vector field in fluid (poroelastic) =    3.10582807E-03
 Max absolute value of scalar field in fluid (acoustic) =    156.130188
 Elapsed time in seconds =    83.223000049591064
 Elapsed time in hh:mm:ss =      0 h 01 m 23 s
 Mean elapsed time per time step in seconds =    4.1611500024795529E-002
 Time steps remaining =          500
 Estimated remaining time in seconds =    20.805750012397766
 Estimated remaining time in hh:mm:ss =      0 h 00 m 20 s
 Estimated total run time in seconds =    104.02875006198883
 Estimated total run time in hh:mm:ss =      0 h 01 m 44 s
 The run will finish approximately on: Sat Feb 09, 2019 16:08


 Creating color image of size         1770  x         1858  for time step         2000
 drawing scalar image of the forward wavefield displacement...
 Color image maximum amplitude =    6.3956743106245995E-003
 Color image created

 Creating color image of size         1770  x         1858  for time step         2100
 drawing scalar image of the forward wavefield displacement...
 Color image maximum amplitude =    6.2422477640211582E-003
 Color image created

 ******************************************************************
Time step number    2200   t =    0.9236 s out of    2500
 ******************************************************************
 We have done    87.9952011     % of the total
 Max norm of vector field in solid (poroelastic) =    2.40424625E-03
 Max norm of vector field in fluid (poroelastic) =    2.80441414E-03
 Max absolute value of scalar field in fluid (acoustic) =    139.112976
 Elapsed time in seconds =    91.274000167846680
 Elapsed time in hh:mm:ss =      0 h 01 m 31 s
 Mean elapsed time per time step in seconds =    4.1488181894475763E-002
 Time steps remaining =          300
 Estimated remaining time in seconds =    12.446454568342729
 Estimated remaining time in hh:mm:ss =      0 h 00 m 12 s
 Estimated total run time in seconds =    103.72045473618941
 Estimated total run time in hh:mm:ss =      0 h 01 m 43 s
 The run will finish approximately on: Sat Feb 09, 2019 16:08


 Creating color image of size         1770  x         1858  for time step         2200
 drawing scalar image of the forward wavefield displacement...
 Color image maximum amplitude =    6.0990704223513603E-003
 Color image created

 Creating color image of size         1770  x         1858  for time step         2300
 drawing scalar image of the forward wavefield displacement...
 Color image maximum amplitude =    5.9659341350197792E-003
 Color image created

 ******************************************************************
Time step number    2400   t =    1.0076 s out of    2500
 ******************************************************************
 We have done    95.9983978     % of the total
 Max norm of vector field in solid (poroelastic) =    2.08647433E-03
 Max norm of vector field in fluid (poroelastic) =    2.73608253E-03
 Max absolute value of scalar field in fluid (acoustic) =    126.782570
 Elapsed time in seconds =    99.222000122070312
 Elapsed time in hh:mm:ss =      0 h 01 m 39 s
 Mean elapsed time per time step in seconds =    4.1342500050862631E-002
 Time steps remaining =          100
 Estimated remaining time in seconds =    4.1342500050862627
 Estimated remaining time in hh:mm:ss =      0 h 00 m 04 s
 Estimated total run time in seconds =    103.35625012715657
 Estimated total run time in hh:mm:ss =      0 h 01 m 43 s
 The run will finish approximately on: Sat Feb 09, 2019 16:08


 Creating color image of size         1770  x         1858  for time step         2400
 drawing scalar image of the forward wavefield displacement...
 Color image maximum amplitude =    5.8158827014267445E-003
 Color image created

 ******************************************************************
Time step number    2500   t =    1.0496 s out of    2500
 ******************************************************************
 We have done    100.000000     % of the total
 Max norm of vector field in solid (poroelastic) =    1.92612025E-03
 Max norm of vector field in fluid (poroelastic) =    2.72975909E-03
 Max absolute value of scalar field in fluid (acoustic) =    121.214722
 Elapsed time in seconds =    103.91500020027161
 Elapsed time in hh:mm:ss =      0 h 01 m 43 s
 Mean elapsed time per time step in seconds =    4.1566000080108641E-002
 Time steps remaining =            0
 Estimated remaining time in seconds =    0.0000000000000000
 Estimated remaining time in hh:mm:ss =      0 h 00 m 00 s
 Estimated total run time in seconds =    103.91500020027161
 Estimated total run time in hh:mm:ss =      0 h 01 m 43 s


 Creating color image of size         1770  x         1858  for time step         2500
 drawing scalar image of the forward wavefield displacement...
 Color image maximum amplitude =    5.7001104578375816E-003
 Color image created

 Total duration of the time loop in seconds =    103.412392      s
 Total number of time steps =         2500
 Average duration of a time step of the time loop =    4.13649566E-02  s
 Total number of spectral elements in the mesh =         8515
     of which         8515  are regular elements
     and            0  are PML elements.
 Average duration of the calculation per spectral element =    4.85789269E-06  s


 Total duration of the timeloop in seconds, measured using
 date and time of the system :    104.199997      s


 -------------------------------------------------------------------------------
 -------------------------------------------------------------------------------
 Program SPECFEM2D:
 -------------------------------------------------------------------------------
 -------------------------------------------------------------------------------
 Test for 2 layers: acoustic/poroelastic
 -------------------------------------------------------------------------------
 -------------------------------------------------------------------------------
 D a t e : 09 - 02 - 2019                                 T i m e  : 16:08:12
 -------------------------------------------------------------------------------
 -------------------------------------------------------------------------------

see results in directory: OUTPUT_FILES/

done
Sat Feb 9 16:08:12 AST 2019
