running example: Sun May 14 20:01:11 AST 2017

(will take a few minutes)


   setting up example...


  running mesher...


 **********************************************
 *** Specfem 2-D Mesher - MPI version       ***
 **********************************************

 Reading the parameter file...

 Title of the simulation: Rayleigh wave in a homogeneous 2D medium


 Receiver lines:
   Nb of line sets =            1

 Materials:
   Nb of solid, fluid or porous materials =            1

 --------
 Material #           1  isotropic
 rho,cp,cs   =    1.0000000000000000        2.0000000000000000        1.0000000000000000
 Qkappa, Qmu =    9999.0000000000000        9999.0000000000000
 Material is solid
 --------

 Mesh from internal meshing:

 Reading interface data from file: ./DATA/interfaces_Rayleigh_flat.dat
 Reading            2  points for interface            1
 Reading            2  points for interface            2

 Total number of layers in z direction =            1
 There are           28  spectral elements along Z in layer            1

 Total number of spectral elements along X =           60
 Total number of spectral elements along Z =           28

 Regions:
   Nb of regions in the mesh =            1

 ------
 Region            1
 IX from            1  to           60
 IZ from            1  to           28
 Material #            1  isotropic
 Material is solid
 vp     =    2.00000000
 vs     =    1.00000000
 rho    =    1.00000000
 Poisson's ratio =   0.333333343
 QKappa =    9999.00000
 Qmu    =    9999.00000
 ------
 Total number of spectral elements         =         1680


 Parameter file successfully read

 The mesh contains         1680  elements

 Control elements have            4  nodes

 Source           1
   Position xs, zs =    3.5000000000000000        9.0000000000000000

   Source type (1=force, 2=moment tensor, 3=Rayleigh wave, 4=plane incident P, 5=plane incident S):            3
   Rayleigh wave source:

   Time function type (1=Ricker, 2=First derivative, 3=Gaussian, 4=Dirac, 5=Heaviside, 8=Read from file, 9=burst):           1
   Ricker wavelet (second-derivative):
   Frequency, delay =    1.0000000000000000        0.0000000000000000

 Reading interface data from file: ./DATA/interfaces_Rayleigh_flat.dat

 Mesh dimensions:
   Min and max value of X in the grid =    0.0000000000000000        19.000000000000000
   Min and max value of Z in the grid =    0.0000000000000000        9.0000000000000018


 ************ Computing elements load ************
 Number of elastic elements :        1680
 Number of acoustic elements :           0
 Number of viscoelastic elements :           0
 Number of elastic PML elements :           0
 Number of acoustic PML elements :           0
 Number of viscoelastic PML elements :           0
 *************************************************


 Partitioning method: SCOTCH

 nedges_coupled (acoustic/elastic)     =            0
 nedges_coupled (acoustic/poroelastic) =            0
 nedges_coupled (poroelastic/elastic)  =            0

 slice            0  has number of spectral elements =         840
 slice            1  has number of spectral elements =         840

 Position (x,z) of the source =    3.5000000000000000        9.0000000000000000


 writing the ./DATA/STATIONS file


 There are            5  receivers

 Target positions (x,z) of the            5  receivers

 Receiver            1  =    14.500000000000000        9.0000000000000000
 Receiver            2  =    15.250000000000000        9.0000000000000000
 Receiver            3  =    16.000000000000000        9.0000000000000000
 Receiver            4  =    16.750000000000000        9.0000000000000000
 Receiver            5  =    17.500000000000000        9.0000000000000000

 This will be a parallel simulation on            2  processor cores


 Running solver on 2 processors...


 **********************************************
 **** Specfem 2-D Solver - MPI version     ****
 **********************************************

 There are            2  MPI processes
 Processes are numbered from 0 to            1

 There is a total of            2  slices

 NDIM =            2

 NGLLX =            5
 NGLLZ =            5

 using single precision for the calculations

 smallest and largest possible floating-point numbers are:    1.17549435E-38   3.40282347E+38


 -------------------------------------------------------------------------------
 -------------------------------------------------------------------------------
 Program SPECFEM2D:
 -------------------------------------------------------------------------------
 -------------------------------------------------------------------------------
 Rayleigh wave in a homogeneous 2D medium
 -------------------------------------------------------------------------------
 -------------------------------------------------------------------------------
 D a t e : 14 - 05 - 2017                                 T i m e  : 20:01:11
 -------------------------------------------------------------------------------
 -------------------------------------------------------------------------------


 C o n t r o l
 =============

     Number of spectral element control nodes. . .(npgeo) =     899
     Number of space dimensions. . . . . . . . . . (NDIM) =       2


 C o n t r o l
 =============

     Display frequency . . . .(NSTEP_BETWEEN_OUTPUT_INFO) =    200
     Color display . . . . . . . . . . . . . . . (colors) =      1
      == 0     black and white display
      == 1     color display
     Numbered mesh . . . . . . . . . . . . . . .(numbers) =      0
      == 0     do not number the mesh
      == 1     number the mesh


 C o n t r o l
 =============

     Seismograms recording type . . . . . . .(seismotype) =      1
     Angle for first line of receivers. . . . .(anglerec) =   0.00


 C o n t r o l
 =============

     Read external initial field. . . . . .(initialfield) =      T
     Add Bielak conditions (add_Bielak_conditions_bottom) =      T
     Add Bielak conditions .(add_Bielak_conditions_right) =      T
     Add Bielak conditions . .(add_Bielak_conditions_top) =      T
     Add Bielak conditions. .(add_Bielak_conditions_left) =      T
     Attenuation on/off . . . .(ATTENUATION_VISCOELASTIC) =      F
     Save grid in ASCII file or not . (output_grid_ASCII) =      F
     Save a file with total energy or not.(OUTPUT_ENERGY) =      F


 C o n t r o l
 =============

     Vector display type . . . . . . . . .(imagetype_postscript) =      1
     Percentage of cut for vector plots. . . . . . . .(cutsnaps) =   1.00
     Subsampling of velocity model display. (subsamp_postscript) =      1


 I t e r a t i o n s
 ===================

     Number of time iterations . . . . .(NSTEP) =    5000
     Time step increment. . . . . . . . . .(DT) =   3.906250E-03
     Total simulation duration . . . . . (ttot) =   1.953125E+01

     -- Spectral Elements --


     Number of spectral elements . . . . . . . . .  (nspec) =   1680
     Number of control nodes per element . . . . . (ngnod) =      4
     Number of points in X-direction . . . . . . . (NGLLX) =      5
     Number of points in Y-direction . . . . . . . (NGLLZ) =      5
     Number of points per element. . . . . . (NGLLX*NGLLZ) =     25
     Number of points for display . . . . . . (pointsdisp) =      6
     Number of element material sets . . . . . . . (numat) =      1
     Number of acoustic forcing elements (nelem_acforcing) =      0
     Number of acoustic free surf (nelem_acoustic_surface) =      0


 M a t e r i a l   s e t s :   2 D  (p o r o) e l a s t i c i t y
 ======================================================

     Number of material sets . . . . . . (numat) =     1


     ----------------------------------------
     -- Elastic (solid) isotropic material --
     ----------------------------------------
     Material set number. . . . . . . . (jmat) =     1
     P-wave velocity. . . . . . . . . . . (cp) = 2.00000000E+00
     S-wave velocity. . . . . . . . . . . (cs) = 1.00000000E+00
     Mass density. . . . . . . . . . (density) = 1.00000000E+00
     Poisson's ratio. . . . . . . . .(poisson) = 3.50000000E-01
     First Lame parameter Lambda. . . (lambda) = 2.00000000E+00
     Second Lame parameter Mu. . . . . . .(mu) = 1.00000000E+00
     Bulk modulus Kappa . . . . . . . .(kappa) = 3.00000000E+00
     Young's modulus E. . . . . . . . .(young) = 2.70000000E+00
     QKappa_attenuation .  . . . . . .(QKappa) = 9.99900000E+03
     Qmu_attenuation . . . . . . . . . . (Qmu) = 9.99900000E+03

 Absorbing boundaries:
   using Stacey absorbing boundary conditions

 Number of absorbing elements:          116
   nspec_left   =           28
   nspec_right  =           28
   nspec_bottom =           60
   nspec_top    =            0


 Setting up mesh

 Generating global mesh numbering (fast version)...

 Mesh numbering:
   Total number of elements:         1680

   Total number of acoustic elements           =            0
   Total number of elastic/visco/poro elements =         1680

 Approximate total number of grid points in the mesh
 (with a few duplicates coming from MPI buffers):        27346

 Approximate number of acoustic degrees of freedom in the mesh:            0
 Approximate number of elastic degrees of freedom in the mesh:        54692
   (there are 2 degrees of freedom per point for elastic elements)

 Approximate total number of degrees of freedom in the mesh
 (sum of the two values above):        54692

  (for simplicity viscoelastic or poroelastic elements, if any,
   are counted as elastic in the above three estimates;
   in reality they have more degrees of freedom)

 Mesh dimensions:
   Xmin,Xmax of the whole mesh =    0.0000000000000000        19.000000000000000
   Zmin,Zmax of the whole mesh =    0.0000000000000000        9.0000000000000018

 Domains:
   total number of acoustic elements        =            0
   total number of elastic elements         =         1680
   total number of poroelastic elements     =            0
   total number of gravitoacoustic elements =            0

 Setting up MPI communication arrays

   maximum number of MPI interfaces (for a single slice) =            1

   total MPI interface points:          226

   master process:
   number of MPI interfaces in acoustic domain    =            0
   number of MPI interfaces in elastic domain     =            1
   number of MPI interfaces in poroelastic domain =            0

   number of outer elements  =           28
   number of inner elements  =          812

   percentage of outer elements    3.33333588     %
   percentage of inner elements    96.6666641     %

   number of global nodes in outer elements  =          565
   number of global nodes in inner elements  =        13221

   determining communication phases:
   elastic domains:
   total number of outer/inner elements =           56        1624
   total percentage of outer elements    3.33333588     %
   total percentage of inner elements    96.6666641     %

 All mesh setup done successfully

 sources:

 receivers:

 Total number of receivers =            5


 ********************
  locating receivers
 ********************

 reading receiver information from the ./DATA/STATIONS file


 Station #            1     AA      S0001
             original x:    14.5000000
             original z:    9.00000000
   distance from source:    11.0000000
 closest estimate found:    0.00000000      m away
  in element          826
  in rank            0
  at xi,gamma coordinates =   0.57894736842105532       0.99999999999999500


 Station #            2     AA      S0002
             original x:    15.2500000
             original z:    9.00000000
   distance from source:    11.7500000
 closest estimate found:    0.00000000      m away
  in element          829
  in rank            0
  at xi,gamma coordinates =  -0.68421052631579782       0.99999999999999645


 Station #            3     AA      S0003
             original x:    16.0000000
             original z:    9.00000000
   distance from source:    12.5000000
 closest estimate found:    3.55271368E-15  m away
  in element          831
  in rank            0
  at xi,gamma coordinates =    5.2631578947377661E-002  0.99999999999999545


 Station #            4     AA      S0004
             original x:    16.7500000
             original z:    9.00000000
   distance from source:    13.2500000
 closest estimate found:    0.00000000      m away
  in element          833
  in rank            0
  at xi,gamma coordinates =   0.78947368421051611        1.0000000000000060


 Station #            5     AA      S0005
             original x:    17.5000000
             original z:    9.00000000
   distance from source:    14.0000000
 closest estimate found:    0.00000000      m away
  in element          836
  in rank            0
  at xi,gamma coordinates =  -0.47368421052632492       0.99999999999999645


 end of receiver detection

 found a total of            5  receivers, this is okay


 Preparing array allocations
   arrays for elastic domains
   wavefield initialization
   done initialization

 Preparing mass matrices
   initializing mass matrices
   inverting mass matrices

 Preparing image coloring

 Checking mesh and stability

 ********
 Model: P (or PI) velocity min,max =    2.0000000000000000        2.0000000000000000
 Model: S velocity min,max         =    1.0000000000000000        1.0000000000000000
 Model: density min,max            =    1.0000000000000000        1.0000000000000000
 ********


 *********************************************
 *** Verification of simulation parameters ***
 *********************************************

 *** Max grid size =   0.32142857142857295
 *** Min grid size =   0.31666666666666465
 *** Max/min ratio =    1.0150375939849736

 *** Minimum GLL point distance  =    5.4679835471236594E-002
 *** Average GLL point distance  =    7.9166666666666163E-002

 *** Minimum period resolved     =   0.40178571428571619
 *** Maximum frequency resolved  =    2.4888888888888769      Hz

 *** Maximum suggested time step                 =    1.3669958867809149E-002
 *** Maximum suggested (Ricker) source frequency =   0.99555555555555086

 *** for DT :    3.9062500000000000E-003
 *** Max CFL stability condition of the time scheme based on P wave velocity (must be below about 0.50 or so) =   0.14287716728975225


 Preparing initial field for plane wave source

 Implementing an analytical initial plane wave...


 *** calculation of the initial plane wave ***

 To change the initial plane wave, change source_type in DATA/SOURCE and use:
   1 or 4 - for a plane P wave
   2 or 5 - for a plane SV wave
   3      - for a Rayleigh wave

 Rayleigh wave introduced.

 angle source          =    0.0000000000000000

 mesh dimensions:
   x min/max =    0.00000000       19.0000000
   z min/max =    0.00000000       9.00000000

 Number of grid points =        13673

 You can modify the location of the initial plane wave by changing xs and zs in DATA/SOURCE.
    for instance: xs=   3.5000000000000000         zs=   9.0000000000000000       (zs can/should be the height of the free surface)

 *************
 We have to compute the initial field in the frequency domain
 and then convert it to the time domain (can be long... be patient...)
 *************
 boundary points:
   left    =            0
   right   =          140
   bottom  =          150

 N found to perform the frequency calculation =       16384
 number of discrete frequencies               =         8192
 delta in period (seconds)                    =    32.000000000000000
 delta in frequency (Hz)                      =    3.1250000000000000E-002
 dt (here we need deltat/2)                   =    1.9531250000000000E-003
 Poisson's ratio                              =   0.33333333333333331
 calculation of the initial field for every point of the mesh
         500 points have been computed out of        13673
        1000 points have been computed out of        13673
        1500 points have been computed out of        13673
        2000 points have been computed out of        13673
        2500 points have been computed out of        13673
        3000 points have been computed out of        13673
        3500 points have been computed out of        13673
        4000 points have been computed out of        13673
        4500 points have been computed out of        13673
        5000 points have been computed out of        13673
        5500 points have been computed out of        13673
        6000 points have been computed out of        13673
        6500 points have been computed out of        13673
        7000 points have been computed out of        13673
        7500 points have been computed out of        13673
        8000 points have been computed out of        13673
        8500 points have been computed out of        13673
        9000 points have been computed out of        13673
        9500 points have been computed out of        13673
       10000 points have been computed out of        13673
       10500 points have been computed out of        13673
       11000 points have been computed out of        13673
       11500 points have been computed out of        13673
       12000 points have been computed out of        13673
       12500 points have been computed out of        13673
       13000 points have been computed out of        13673
       13500 points have been computed out of        13673
 calculation of every time step on the left absorbing boundary
 calculation of every time step on the right absorbing boundary
 calculation of every time step on the bottom absorbing boundary

 ***********
 done calculating the initial wave field
 ***********

 Max norm of initial elastic displacement =    5.45707589E-05

 Preparing source time function

 Preparing material arrays

 Preparing image coloring
   allocating color image arrays
   locating all the pixels of color images
   total number of image pixels =        13770
   done locating all the pixels of color images
   coloring image background based on vp

 done, preparation successful


 =========================================
 =  T i m e  e v o l u t i o n  l o o p  =
 =========================================


 Starting time iteration loop ...


 ******************************************************************
Time step number       5   t =    0.0156 s out of    5000
 ******************************************************************
 We have done    8.00160021E-02 % of the total
 Max norm of vector field in solid (elastic) =   0.701794684
 Elapsed time in seconds =    6.0000419616699219E-003
 Elapsed time in hh:mm:ss =      0 h 00 m 00 s
 Mean elapsed time per time step in seconds =    1.2000083923339843E-003
 Time steps remaining =         4995
 Estimated remaining time in seconds =    5.9940419197082520
 Estimated remaining time in hh:mm:ss =      0 h 00 m 05 s
 Estimated total run time in seconds =    6.0000419616699219
 Estimated total run time in hh:mm:ss =      0 h 00 m 06 s
 The run will finish approximately on: Sun May 14, 2017 20:05


 Creating color image of size          170  x           86  for time step            5
 drawing scalar image of part of the displacement vector...
 Color image maximum amplitude =   0.69664656493721966
 Color image created

 Creating color image of size          170  x           86  for time step          100
 drawing scalar image of part of the displacement vector...
 Color image maximum amplitude =   0.69964220965845103
 Color image created

 ******************************************************************
Time step number     200   t =    0.7773 s out of    5000
 ******************************************************************
 We have done    3.98079610     % of the total
 Max norm of vector field in solid (elastic) =   0.682489157
 Elapsed time in seconds =   0.16700005531311035
 Elapsed time in hh:mm:ss =      0 h 00 m 00 s
 Mean elapsed time per time step in seconds =    8.3500027656555173E-004
 Time steps remaining =         4800
 Estimated remaining time in seconds =    4.0080013275146484
 Estimated remaining time in hh:mm:ss =      0 h 00 m 04 s
 Estimated total run time in seconds =    4.1750013828277588
 Estimated total run time in hh:mm:ss =      0 h 00 m 04 s
 The run will finish approximately on: Sun May 14, 2017 20:05


 Creating color image of size          170  x           86  for time step          200
 drawing scalar image of part of the displacement vector...
 Color image maximum amplitude =   0.67784161507418084
 Color image created

 Creating color image of size          170  x           86  for time step          300
 drawing scalar image of part of the displacement vector...
 Color image maximum amplitude =   0.70304546933644729
 Color image created

 ******************************************************************
Time step number     400   t =    1.5586 s out of    5000
 ******************************************************************
 We have done    7.98159647     % of the total
 Max norm of vector field in solid (elastic) =   0.691201091
 Elapsed time in seconds =   0.32999992370605469
 Elapsed time in hh:mm:ss =      0 h 00 m 00 s
 Mean elapsed time per time step in seconds =    8.2499980926513676E-004
 Time steps remaining =         4600
 Estimated remaining time in seconds =    3.7949991226196289
 Estimated remaining time in hh:mm:ss =      0 h 00 m 03 s
 Estimated total run time in seconds =    4.1249990463256836
 Estimated total run time in hh:mm:ss =      0 h 00 m 04 s
 The run will finish approximately on: Sun May 14, 2017 20:05


 Creating color image of size          170  x           86  for time step          400
 drawing scalar image of part of the displacement vector...
 Color image maximum amplitude =   0.68767292896268606
 Color image created

 Creating color image of size          170  x           86  for time step          500
 drawing scalar image of part of the displacement vector...
 Color image maximum amplitude =   0.70476534530527257
 Color image created

 ******************************************************************
Time step number     600   t =    2.3398 s out of    5000
 ******************************************************************
 We have done    11.9823961     % of the total
 Max norm of vector field in solid (elastic) =   0.702442348
 Elapsed time in seconds =   0.49300003051757812
 Elapsed time in hh:mm:ss =      0 h 00 m 00 s
 Mean elapsed time per time step in seconds =    8.2166671752929691E-004
 Time steps remaining =         4400
 Estimated remaining time in seconds =    3.6153335571289062
 Estimated remaining time in hh:mm:ss =      0 h 00 m 03 s
 Estimated total run time in seconds =    4.1083335876464844
 Estimated total run time in hh:mm:ss =      0 h 00 m 04 s
 The run will finish approximately on: Sun May 14, 2017 20:05


 Creating color image of size          170  x           86  for time step          600
 drawing scalar image of part of the displacement vector...
 Color image maximum amplitude =   0.69459457801623592
 Color image created

 Creating color image of size          170  x           86  for time step          700
 drawing scalar image of part of the displacement vector...
 Color image maximum amplitude =   0.69958674722206005
 Color image created

 ******************************************************************
Time step number     800   t =    3.1211 s out of    5000
 ******************************************************************
 We have done    15.9831963     % of the total
 Max norm of vector field in solid (elastic) =   0.698039591
 Elapsed time in seconds =   0.65599989891052246
 Elapsed time in hh:mm:ss =      0 h 00 m 00 s
 Mean elapsed time per time step in seconds =    8.1999987363815311E-004
 Time steps remaining =         4200
 Estimated remaining time in seconds =    3.4439994692802429
 Estimated remaining time in hh:mm:ss =      0 h 00 m 03 s
 Estimated total run time in seconds =    4.0999993681907654
 Estimated total run time in hh:mm:ss =      0 h 00 m 04 s
 The run will finish approximately on: Sun May 14, 2017 20:05


 Creating color image of size          170  x           86  for time step          800
 drawing scalar image of part of the displacement vector...
 Color image maximum amplitude =   0.69803034613626069
 Color image created

 Creating color image of size          170  x           86  for time step          900
 drawing scalar image of part of the displacement vector...
 Color image maximum amplitude =   0.69230184460676725
 Color image created

 ******************************************************************
Time step number    1000   t =    3.9023 s out of    5000
 ******************************************************************
 We have done    19.9839973     % of the total
 Max norm of vector field in solid (elastic) =   0.698547304
 Elapsed time in seconds =   0.81999993324279785
 Elapsed time in hh:mm:ss =      0 h 00 m 00 s
 Mean elapsed time per time step in seconds =    8.1999993324279789E-004
 Time steps remaining =         4000
 Estimated remaining time in seconds =    3.2799997329711914
 Estimated remaining time in hh:mm:ss =      0 h 00 m 03 s
 Estimated total run time in seconds =    4.0999996662139893
 Estimated total run time in hh:mm:ss =      0 h 00 m 04 s
 The run will finish approximately on: Sun May 14, 2017 20:05


 Creating color image of size          170  x           86  for time step         1000
 drawing scalar image of part of the displacement vector...
 Color image maximum amplitude =   0.69704236172645662
 Color image created

 Creating color image of size          170  x           86  for time step         1100
 drawing scalar image of part of the displacement vector...
 Color image maximum amplitude =   0.66162415604422331
 Color image created

 ******************************************************************
Time step number    1200   t =    4.6836 s out of    5000
 ******************************************************************
 We have done    23.9847965     % of the total
 Max norm of vector field in solid (elastic) =   0.705462515
 Elapsed time in seconds =   0.98600006103515625
 Elapsed time in hh:mm:ss =      0 h 00 m 00 s
 Mean elapsed time per time step in seconds =    8.2166671752929691E-004
 Time steps remaining =         3800
 Estimated remaining time in seconds =    3.1223335266113281
 Estimated remaining time in hh:mm:ss =      0 h 00 m 03 s
 Estimated total run time in seconds =    4.1083335876464844
 Estimated total run time in hh:mm:ss =      0 h 00 m 04 s
 The run will finish approximately on: Sun May 14, 2017 20:05


 Creating color image of size          170  x           86  for time step         1200
 drawing scalar image of part of the displacement vector...
 Color image maximum amplitude =   0.67354152642968557
 Color image created

 Creating color image of size          170  x           86  for time step         1300
 drawing scalar image of part of the displacement vector...
 Color image maximum amplitude =   0.70896248920340643
 Color image created

 ******************************************************************
Time step number    1400   t =    5.4648 s out of    5000
 ******************************************************************
 We have done    27.9855976     % of the total
 Max norm of vector field in solid (elastic) =   0.709166050
 Elapsed time in seconds =    1.1500000953674316
 Elapsed time in hh:mm:ss =      0 h 00 m 01 s
 Mean elapsed time per time step in seconds =    8.2142863954816543E-004
 Time steps remaining =         3600
 Estimated remaining time in seconds =    2.9571431023733954
 Estimated remaining time in hh:mm:ss =      0 h 00 m 02 s
 Estimated total run time in seconds =    4.1071431977408270
 Estimated total run time in hh:mm:ss =      0 h 00 m 04 s
 The run will finish approximately on: Sun May 14, 2017 20:05


 Creating color image of size          170  x           86  for time step         1400
 drawing scalar image of part of the displacement vector...
 Color image maximum amplitude =   0.70934149928542645
 Color image created

 Creating color image of size          170  x           86  for time step         1500
 drawing scalar image of part of the displacement vector...
 Color image maximum amplitude =   0.68759827331642798
 Color image created

 ******************************************************************
Time step number    1600   t =    6.2461 s out of    5000
 ******************************************************************
 We have done    31.9863968     % of the total
 Max norm of vector field in solid (elastic) =   0.706822932
 Elapsed time in seconds =    1.3129999637603760
 Elapsed time in hh:mm:ss =      0 h 00 m 01 s
 Mean elapsed time per time step in seconds =    8.2062497735023497E-004
 Time steps remaining =         3400
 Estimated remaining time in seconds =    2.7901249229907990
 Estimated remaining time in hh:mm:ss =      0 h 00 m 02 s
 Estimated total run time in seconds =    4.1031248867511749
 Estimated total run time in hh:mm:ss =      0 h 00 m 04 s
 The run will finish approximately on: Sun May 14, 2017 20:05


 Creating color image of size          170  x           86  for time step         1600
 drawing scalar image of part of the displacement vector...
 Color image maximum amplitude =   0.70839242634733479
 Color image created

 Creating color image of size          170  x           86  for time step         1700
 drawing scalar image of part of the displacement vector...
 Color image maximum amplitude =   0.69230949419647025
 Color image created

 ******************************************************************
Time step number    1800   t =    7.0273 s out of    5000
 ******************************************************************
 We have done    35.9871979     % of the total
 Max norm of vector field in solid (elastic) =   0.702547729
 Elapsed time in seconds =    1.4749999046325684
 Elapsed time in hh:mm:ss =      0 h 00 m 01 s
 Mean elapsed time per time step in seconds =    8.1944439146253796E-004
 Time steps remaining =         3200
 Estimated remaining time in seconds =    2.6222220526801214
 Estimated remaining time in hh:mm:ss =      0 h 00 m 02 s
 Estimated total run time in seconds =    4.0972219573126898
 Estimated total run time in hh:mm:ss =      0 h 00 m 04 s
 The run will finish approximately on: Sun May 14, 2017 20:05


 Creating color image of size          170  x           86  for time step         1800
 drawing scalar image of part of the displacement vector...
 Color image maximum amplitude =   0.70538144694984395
 Color image created

 Creating color image of size          170  x           86  for time step         1900
 drawing scalar image of part of the displacement vector...
 Color image maximum amplitude =   0.69479920038918341
 Color image created

 ******************************************************************
Time step number    2000   t =    7.8086 s out of    5000
 ******************************************************************
 We have done    39.9879990     % of the total
 Max norm of vector field in solid (elastic) =   0.702313423
 Elapsed time in seconds =    1.6380000114440918
 Elapsed time in hh:mm:ss =      0 h 00 m 01 s
 Mean elapsed time per time step in seconds =    8.1900000572204595E-004
 Time steps remaining =         3000
 Estimated remaining time in seconds =    2.4570000171661377
 Estimated remaining time in hh:mm:ss =      0 h 00 m 02 s
 Estimated total run time in seconds =    4.0950000286102295
 Estimated total run time in hh:mm:ss =      0 h 00 m 04 s
 The run will finish approximately on: Sun May 14, 2017 20:05


 Creating color image of size          170  x           86  for time step         2000
 drawing scalar image of part of the displacement vector...
 Color image maximum amplitude =   0.69233361130636240
 Color image created

 Creating color image of size          170  x           86  for time step         2100
 drawing scalar image of part of the displacement vector...
 Color image maximum amplitude =   0.70380504976144909
 Color image created

 ******************************************************************
Time step number    2200   t =    8.5898 s out of    5000
 ******************************************************************
 We have done    43.9887962     % of the total
 Max norm of vector field in solid (elastic) =   0.674256921
 Elapsed time in seconds =    1.8009998798370361
 Elapsed time in hh:mm:ss =      0 h 00 m 01 s
 Mean elapsed time per time step in seconds =    8.1863630901683455E-004
 Time steps remaining =         2800
 Estimated remaining time in seconds =    2.2921816652471367
 Estimated remaining time in hh:mm:ss =      0 h 00 m 02 s
 Estimated total run time in seconds =    4.0931815450841729
 Estimated total run time in hh:mm:ss =      0 h 00 m 04 s
 The run will finish approximately on: Sun May 14, 2017 20:05


 Creating color image of size          170  x           86  for time step         2200
 drawing scalar image of part of the displacement vector...
 Color image maximum amplitude =   0.68045310703698303
 Color image created

 Creating color image of size          170  x           86  for time step         2300
 drawing scalar image of part of the displacement vector...
 Color image maximum amplitude =   0.71004717437972942
 Color image created

 ******************************************************************
Time step number    2400   t =    9.3711 s out of    5000
 ******************************************************************
 We have done    47.9895973     % of the total
 Max norm of vector field in solid (elastic) =   0.679060042
 Elapsed time in seconds =    1.9639999866485596
 Elapsed time in hh:mm:ss =      0 h 00 m 01 s
 Mean elapsed time per time step in seconds =    8.1833332777023313E-004
 Time steps remaining =         2600
 Estimated remaining time in seconds =    2.1276666522026062
 Estimated remaining time in hh:mm:ss =      0 h 00 m 02 s
 Estimated total run time in seconds =    4.0916666388511658
 Estimated total run time in hh:mm:ss =      0 h 00 m 04 s
 The run will finish approximately on: Sun May 14, 2017 20:05


 Creating color image of size          170  x           86  for time step         2400
 drawing scalar image of part of the displacement vector...
 Color image maximum amplitude =   0.67509354756917617
 Color image created

 Creating color image of size          170  x           86  for time step         2500
 drawing scalar image of part of the displacement vector...
 Color image maximum amplitude =   0.67511106398629595
 Color image created

 ******************************************************************
Time step number    2600   t =   10.1523 s out of    5000
 ******************************************************************
 We have done    51.9903984     % of the total
 Max norm of vector field in solid (elastic) =   0.713761806
 Elapsed time in seconds =    2.1289999485015869
 Elapsed time in hh:mm:ss =      0 h 00 m 02 s
 Mean elapsed time per time step in seconds =    8.1884613403907186E-004
 Time steps remaining =         2400
 Estimated remaining time in seconds =    1.9652307216937726
 Estimated remaining time in hh:mm:ss =      0 h 00 m 01 s
 Estimated total run time in seconds =    4.0942306701953592
 Estimated total run time in hh:mm:ss =      0 h 00 m 04 s
 The run will finish approximately on: Sun May 14, 2017 20:05


 Creating color image of size          170  x           86  for time step         2600
 drawing scalar image of part of the displacement vector...
 Color image maximum amplitude =   0.71495457650452565
 Color image created

 Creating color image of size          170  x           86  for time step         2700
 drawing scalar image of part of the displacement vector...
 Color image maximum amplitude =   0.68791976827858992
 Color image created

 ******************************************************************
Time step number    2800   t =   10.9336 s out of    5000
 ******************************************************************
 We have done    55.9911995     % of the total
 Max norm of vector field in solid (elastic) =   0.689842522
 Elapsed time in seconds =    2.2939999103546143
 Elapsed time in hh:mm:ss =      0 h 00 m 02 s
 Mean elapsed time per time step in seconds =    8.1928568226950511E-004
 Time steps remaining =         2200
 Estimated remaining time in seconds =    1.8024285009929113
 Estimated remaining time in hh:mm:ss =      0 h 00 m 01 s
 Estimated total run time in seconds =    4.0964284113475253
 Estimated total run time in hh:mm:ss =      0 h 00 m 04 s
 The run will finish approximately on: Sun May 14, 2017 20:05


 Creating color image of size          170  x           86  for time step         2800
 drawing scalar image of part of the displacement vector...
 Color image maximum amplitude =   0.68299748694731477
 Color image created

 Creating color image of size          170  x           86  for time step         2900
 drawing scalar image of part of the displacement vector...
 Color image maximum amplitude =   0.70553253727910981
 Color image created

 ******************************************************************
Time step number    3000   t =   11.7148 s out of    5000
 ******************************************************************
 We have done    59.9919968     % of the total
 Max norm of vector field in solid (elastic) =   0.701183736
 Elapsed time in seconds =    2.4600000381469727
 Elapsed time in hh:mm:ss =      0 h 00 m 02 s
 Mean elapsed time per time step in seconds =    8.2000001271565750E-004
 Time steps remaining =         2000
 Estimated remaining time in seconds =    1.6400000254313150
 Estimated remaining time in hh:mm:ss =      0 h 00 m 01 s
 Estimated total run time in seconds =    4.1000000635782872
 Estimated total run time in hh:mm:ss =      0 h 00 m 04 s
 The run will finish approximately on: Sun May 14, 2017 20:05


 Creating color image of size          170  x           86  for time step         3000
 drawing scalar image of part of the displacement vector...
 Color image maximum amplitude =   0.69660518646074565
 Color image created

 Creating color image of size          170  x           86  for time step         3100
 drawing scalar image of part of the displacement vector...
 Color image maximum amplitude =   0.69778757935605162
 Color image created

 ******************************************************************
Time step number    3200   t =   12.4961 s out of    5000
 ******************************************************************
 We have done    63.9927979     % of the total
 Max norm of vector field in solid (elastic) =   0.709637403
 Elapsed time in seconds =    2.6259999275207520
 Elapsed time in hh:mm:ss =      0 h 00 m 02 s
 Mean elapsed time per time step in seconds =    8.2062497735023497E-004
 Time steps remaining =         1800
 Estimated remaining time in seconds =    1.4771249592304230
 Estimated remaining time in hh:mm:ss =      0 h 00 m 01 s
 Estimated total run time in seconds =    4.1031248867511749
 Estimated total run time in hh:mm:ss =      0 h 00 m 04 s
 The run will finish approximately on: Sun May 14, 2017 20:05


 Creating color image of size          170  x           86  for time step         3200
 drawing scalar image of part of the displacement vector...
 Color image maximum amplitude =   0.70647889832468136
 Color image created

 Creating color image of size          170  x           86  for time step         3300
 drawing scalar image of part of the displacement vector...
 Color image maximum amplitude =   0.67709639558287593
 Color image created

 ******************************************************************
Time step number    3400   t =   13.2773 s out of    5000
 ******************************************************************
 We have done    67.9935989     % of the total
 Max norm of vector field in solid (elastic) =   0.716583312
 Elapsed time in seconds =    2.7939999103546143
 Elapsed time in hh:mm:ss =      0 h 00 m 02 s
 Mean elapsed time per time step in seconds =    8.2176467951606299E-004
 Time steps remaining =         1600
 Estimated remaining time in seconds =    1.3148234872257007
 Estimated remaining time in hh:mm:ss =      0 h 00 m 01 s
 Estimated total run time in seconds =    4.1088233975803146
 Estimated total run time in hh:mm:ss =      0 h 00 m 04 s
 The run will finish approximately on: Sun May 14, 2017 20:05


 Creating color image of size          170  x           86  for time step         3400
 drawing scalar image of part of the displacement vector...
 Color image maximum amplitude =   0.71585358538528987
 Color image created

 Creating color image of size          170  x           86  for time step         3500
 drawing scalar image of part of the displacement vector...
 Color image maximum amplitude =   0.67541246144070377
 Color image created

 ******************************************************************
Time step number    3600   t =   14.0586 s out of    5000
 ******************************************************************
 We have done    71.9944000     % of the total
 Max norm of vector field in solid (elastic) =   0.716610372
 Elapsed time in seconds =    2.9609999656677246
 Elapsed time in hh:mm:ss =      0 h 00 m 02 s
 Mean elapsed time per time step in seconds =    8.2249999046325685E-004
 Time steps remaining =         1400
 Estimated remaining time in seconds =    1.1514999866485596
 Estimated remaining time in hh:mm:ss =      0 h 00 m 01 s
 Estimated total run time in seconds =    4.1124999523162842
 Estimated total run time in hh:mm:ss =      0 h 00 m 04 s
 The run will finish approximately on: Sun May 14, 2017 20:05


 Creating color image of size          170  x           86  for time step         3600
 drawing scalar image of part of the displacement vector...
 Color image maximum amplitude =   0.71733693707081514
 Color image created

 Creating color image of size          170  x           86  for time step         3700
 drawing scalar image of part of the displacement vector...
 Color image maximum amplitude =   0.68076053640002665
 Color image created

 ******************************************************************
Time step number    3800   t =   14.8398 s out of    5000
 ******************************************************************
 We have done    75.9952011     % of the total
 Max norm of vector field in solid (elastic) =   0.713653862
 Elapsed time in seconds =    3.1250000000000000
 Elapsed time in hh:mm:ss =      0 h 00 m 03 s
 Mean elapsed time per time step in seconds =    8.2236842105263153E-004
 Time steps remaining =         1200
 Estimated remaining time in seconds =   0.98684210526315785
 Estimated remaining time in hh:mm:ss =      0 h 00 m 00 s
 Estimated total run time in seconds =    4.1118421052631575
 Estimated total run time in hh:mm:ss =      0 h 00 m 04 s
 The run will finish approximately on: Sun May 14, 2017 20:05


 Creating color image of size          170  x           86  for time step         3800
 drawing scalar image of part of the displacement vector...
 Color image maximum amplitude =   0.71574100802630158
 Color image created

 Creating color image of size          170  x           86  for time step         3900
 drawing scalar image of part of the displacement vector...
 Color image maximum amplitude =   0.68459169417622512
 Color image created

 ******************************************************************
Time step number    4000   t =   15.6211 s out of    5000
 ******************************************************************
 We have done    79.9960022     % of the total
 Max norm of vector field in solid (elastic) =   0.703830302
 Elapsed time in seconds =    3.2899999618530273
 Elapsed time in hh:mm:ss =      0 h 00 m 03 s
 Mean elapsed time per time step in seconds =    8.2249999046325685E-004
 Time steps remaining =         1000
 Estimated remaining time in seconds =   0.82249999046325684
 Estimated remaining time in hh:mm:ss =      0 h 00 m 00 s
 Estimated total run time in seconds =    4.1124999523162842
 Estimated total run time in hh:mm:ss =      0 h 00 m 04 s
 The run will finish approximately on: Sun May 14, 2017 20:05


 Creating color image of size          170  x           86  for time step         4000
 drawing scalar image of part of the displacement vector...
 Color image maximum amplitude =   0.70527586580010670
 Color image created

 Creating color image of size          170  x           86  for time step         4100
 drawing scalar image of part of the displacement vector...
 Color image maximum amplitude =   0.68239243155477558
 Color image created

 ******************************************************************
Time step number    4200   t =   16.4023 s out of    5000
 ******************************************************************
 We have done    83.9967957     % of the total
 Max norm of vector field in solid (elastic) =   0.689590096
 Elapsed time in seconds =    3.4579999446868896
 Elapsed time in hh:mm:ss =      0 h 00 m 03 s
 Mean elapsed time per time step in seconds =    8.2333332016354518E-004
 Time steps remaining =          800
 Estimated remaining time in seconds =   0.65866665613083619
 Estimated remaining time in hh:mm:ss =      0 h 00 m 00 s
 Estimated total run time in seconds =    4.1166666008177257
 Estimated total run time in hh:mm:ss =      0 h 00 m 04 s
 The run will finish approximately on: Sun May 14, 2017 20:05


 Creating color image of size          170  x           86  for time step         4200
 drawing scalar image of part of the displacement vector...
 Color image maximum amplitude =   0.69522634721569554
 Color image created

 Creating color image of size          170  x           86  for time step         4300
 drawing scalar image of part of the displacement vector...
 Color image maximum amplitude =   0.71452174625243792
 Color image created

 ******************************************************************
Time step number    4400   t =   17.1836 s out of    5000
 ******************************************************************
 We have done    87.9975967     % of the total
 Max norm of vector field in solid (elastic) =   0.676238775
 Elapsed time in seconds =    3.6229999065399170
 Elapsed time in hh:mm:ss =      0 h 00 m 03 s
 Mean elapsed time per time step in seconds =    8.2340906966816294E-004
 Time steps remaining =          600
 Estimated remaining time in seconds =   0.49404544180089777
 Estimated remaining time in hh:mm:ss =      0 h 00 m 00 s
 Estimated total run time in seconds =    4.1170453483408149
 Estimated total run time in hh:mm:ss =      0 h 00 m 04 s
 The run will finish approximately on: Sun May 14, 2017 20:05


 Creating color image of size          170  x           86  for time step         4400
 drawing scalar image of part of the displacement vector...
 Color image maximum amplitude =   0.66136483094096787
 Color image created

 Creating color image of size          170  x           86  for time step         4500
 drawing scalar image of part of the displacement vector...
 Color image maximum amplitude =   0.65986999218151043
 Color image created

 ******************************************************************
Time step number    4600   t =   17.9648 s out of    5000
 ******************************************************************
 We have done    91.9983978     % of the total
 Max norm of vector field in solid (elastic) =   0.669260085
 Elapsed time in seconds =    3.7899999618530273
 Elapsed time in hh:mm:ss =      0 h 00 m 03 s
 Mean elapsed time per time step in seconds =    8.2391303518544073E-004
 Time steps remaining =          400
 Estimated remaining time in seconds =   0.32956521407417627
 Estimated remaining time in hh:mm:ss =      0 h 00 m 00 s
 Estimated total run time in seconds =    4.1195651759272032
 Estimated total run time in hh:mm:ss =      0 h 00 m 04 s
 The run will finish approximately on: Sun May 14, 2017 20:05


 Creating color image of size          170  x           86  for time step         4600
 drawing scalar image of part of the displacement vector...
 Color image maximum amplitude =   0.66517523487684227
 Color image created

 Creating color image of size          170  x           86  for time step         4700
 drawing scalar image of part of the displacement vector...
 Color image maximum amplitude =   0.11749566913498097
 Color image created

 ******************************************************************
Time step number    4800   t =   18.7461 s out of    5000
 ******************************************************************
 We have done    95.9991989     % of the total
 Max norm of vector field in solid (elastic) =    4.40336987E-02
 Elapsed time in seconds =    3.9549999237060547
 Elapsed time in hh:mm:ss =      0 h 00 m 03 s
 Mean elapsed time per time step in seconds =    8.2395831743876144E-004
 Time steps remaining =          200
 Estimated remaining time in seconds =   0.16479166348775229
 Estimated remaining time in hh:mm:ss =      0 h 00 m 00 s
 Estimated total run time in seconds =    4.1197915871938067
 Estimated total run time in hh:mm:ss =      0 h 00 m 04 s
 The run will finish approximately on: Sun May 14, 2017 20:05


 Creating color image of size          170  x           86  for time step         4800
 drawing scalar image of part of the displacement vector...
 Color image maximum amplitude =    4.3355419723988424E-002
 Color image created

 Creating color image of size          170  x           86  for time step         4900
 drawing scalar image of part of the displacement vector...
 Color image maximum amplitude =    1.2654588944002348E-002
 Color image created

 ******************************************************************
Time step number    5000   t =   19.5273 s out of    5000
 ******************************************************************
 We have done    100.000000     % of the total
 Max norm of vector field in solid (elastic) =    7.77841778E-03
 Elapsed time in seconds =    4.1240000724792480
 Elapsed time in hh:mm:ss =      0 h 00 m 04 s
 Mean elapsed time per time step in seconds =    8.2480001449584961E-004
 Time steps remaining =            0
 Estimated remaining time in seconds =    0.0000000000000000
 Estimated remaining time in hh:mm:ss =      0 h 00 m 00 s
 Estimated total run time in seconds =    4.1240000724792480
 Estimated total run time in hh:mm:ss =      0 h 00 m 04 s


 Creating color image of size          170  x           86  for time step         5000
 drawing scalar image of part of the displacement vector...
 Color image maximum amplitude =    7.8385115539626217E-003
 Color image created


 -------------------------------------------------------------------------------
 -------------------------------------------------------------------------------
 Program SPECFEM2D:
 -------------------------------------------------------------------------------
 -------------------------------------------------------------------------------
 Rayleigh wave in a homogeneous 2D medium
 -------------------------------------------------------------------------------
 -------------------------------------------------------------------------------
 D a t e : 14 - 05 - 2017                                 T i m e  : 20:04:57
 -------------------------------------------------------------------------------
 -------------------------------------------------------------------------------

see results in directory: OUTPUT_FILES/

done
Sun May 14 20:04:57 AST 2017
