running example: Thu Feb 15 17:30:15 CET 2024

setting up example...


running mesher on 4 processors...


 **********************************************
 *** Specfem 2-D Mesher - MPI version       ***
 **********************************************

 Running Git version of the code corresponding to unknown
 dating unknown

 Reading the parameter file...

 Title of the simulation: external Marmousi mesh

 Receiver lines:
   Nb of line sets =            1

 Parameter file successfully read


 Mesh from external meshing:
   Reading materials from external material properties file: ./MESH-default/nummaterial_velocity_file_marmousi2

   defined =          435 undefined =            0

   Materials:
   Nb of solid, fluid or porous materials =          435

 --------
 Material #           1  isotropic
 rho,cp,cs   =    1960.3398999999999        1534.0000000000000        314.18000000000001
 Qkappa, Qmu =    9999.0000000000000        9999.0000000000000
 Material is solid
 --------
 Material #           2  isotropic
 rho,cp,cs   =    1960.3433000000000        1534.0100000000000        314.18770000000001
 Qkappa, Qmu =    9999.0000000000000        9999.0000000000000
 Material is solid
 --------
 Material #           3  isotropic
 rho,cp,cs   =    1932.7123999999999        1454.0000000000000        252.58000000000001
 Qkappa, Qmu =    9999.0000000000000        9999.0000000000000
 Material is solid
 --------
 Material #           4  isotropic
 rho,cp,cs   =    1918.4776999999999        1414.0000000000000        221.78000000000000
 Qkappa, Qmu =    9999.0000000000000        9999.0000000000000
 Material is solid
 --------
 Material #           5  isotropic
 rho,cp,cs   =    1929.1774000000000        1443.9900000000000        244.87230000000000
 Qkappa, Qmu =    9999.0000000000000        9999.0000000000000
 Material is solid
 --------
 Material #           6  isotropic
 rho,cp,cs   =    1914.8729000000001        1404.0000000000000        214.08000000000001
 Qkappa, Qmu =    9999.0000000000000        9999.0000000000000
 Material is solid
 --------
 Material #           7  isotropic
 rho,cp,cs   =    1977.0734000000000        1584.0000000000000        352.68000000000001
 Qkappa, Qmu =    9999.0000000000000        9999.0000000000000
 Material is solid
 --------
 Material #           8  isotropic
 rho,cp,cs   =    1840.1801000000000        1484.0000000000000        337.13600000000002
 Qkappa, Qmu =    9999.0000000000000        9999.0000000000000
 Material is solid
 --------
 Material #           9  isotropic
 rho,cp,cs   =    1960.3398999999999        1534.0000000000000        314.18000000000001
 Qkappa, Qmu =    9999.0000000000000        9999.0000000000000
 Material is solid
 --------
 Material #          10  isotropic
 rho,cp,cs   =    1970.4273000000001        1564.0000000000000        337.27999999999997
 Qkappa, Qmu =    9999.0000000000000        9999.0000000000000
 Material is solid
 --------
 Material #          11  isotropic
 rho,cp,cs   =    1983.6548000000000        1603.9900000000000        368.07229999999998
 Qkappa, Qmu =    9999.0000000000000        9999.0000000000000
 Material is solid
 --------
 Material #          12  isotropic
 rho,cp,cs   =    1918.4776999999999        1414.0000000000000        221.78000000000000
 Qkappa, Qmu =    9999.0000000000000        9999.0000000000000
 Material is solid
 --------
 Material #          13  isotropic
 rho,cp,cs   =    1939.7220000000000        1474.0000000000000        267.98000000000002
 Qkappa, Qmu =    9999.0000000000000        9999.0000000000000
 Material is solid
 --------
 Material #          14  isotropic
 rho,cp,cs   =    1936.2260000000001        1464.0000000000000        260.27999999999997
 Qkappa, Qmu =    9999.0000000000000        9999.0000000000000
 Material is solid
 --------
 Material #          15  isotropic
 rho,cp,cs   =    1929.1810000000000        1444.0000000000000        244.88000000000000
 Qkappa, Qmu =    9999.0000000000000        9999.0000000000000
 Material is solid
 --------
 Material #          16  isotropic
 rho,cp,cs   =    1960.3398999999999        1534.0000000000000        314.18000000000001
 Qkappa, Qmu =    9999.0000000000000        9999.0000000000000
 Material is solid
 --------
 Material #          17  isotropic
 rho,cp,cs   =    1932.7123999999999        1454.0000000000000        252.58000000000001
 Qkappa, Qmu =    9999.0000000000000        9999.0000000000000
 Material is solid
 --------
 Material #          18  isotropic
 rho,cp,cs   =    1943.2007000000001        1484.0000000000000        275.68000000000001
 Qkappa, Qmu =    9999.0000000000000        9999.0000000000000
 Material is solid
 --------
 Material #          19  isotropic
 rho,cp,cs   =    1918.4740999999999        1413.9900000000000        221.77230000000000
 Qkappa, Qmu =    9999.0000000000000        9999.0000000000000
 Material is solid
 --------
 Material #          20  isotropic
 rho,cp,cs   =    1929.1810000000000        1444.0000000000000        244.88000000000000
 Qkappa, Qmu =    9999.0000000000000        9999.0000000000000
 Material is solid
 --------
 Material #          21  isotropic
 rho,cp,cs   =    1918.4776999999999        1414.0000000000000        221.78000000000000
 Qkappa, Qmu =    9999.0000000000000        9999.0000000000000
 Material is solid
 --------
 Material #          22  isotropic
 rho,cp,cs   =    1977.0734000000000        1584.0000000000000        352.68000000000001
 Qkappa, Qmu =    9999.0000000000000        9999.0000000000000
 Material is solid
 --------
 Material #          23  isotropic
 rho,cp,cs   =    1943.1972000000001        1483.9900000000000        275.67230000000001
 Qkappa, Qmu =    9999.0000000000000        9999.0000000000000
 Material is solid
 --------
 Material #          24  isotropic
 rho,cp,cs   =    1960.3398999999999        1534.0000000000000        314.18000000000001
 Qkappa, Qmu =    9999.0000000000000        9999.0000000000000
 Material is solid
 --------
 Material #          25  isotropic
 rho,cp,cs   =    1983.6581000000001        1604.0000000000000        368.07999999999998
 Qkappa, Qmu =    9999.0000000000000        9999.0000000000000
 Material is solid
 --------
 Material #          26  isotropic
 rho,cp,cs   =    1983.6581000000001        1604.0000000000000        368.07999999999998
 Qkappa, Qmu =    9999.0000000000000        9999.0000000000000
 Material is solid
 --------
 Material #          27  isotropic
 rho,cp,cs   =    1939.7255000000000        1474.0100000000000        267.98770000000002
 Qkappa, Qmu =    9999.0000000000000        9999.0000000000000
 Material is solid
 --------
 Material #          28  isotropic
 rho,cp,cs   =    1820.4644000000001        1424.0000000000000        288.89600000000002
 Qkappa, Qmu =    9999.0000000000000        9999.0000000000000
 Material is solid
 --------
 Material #          29  isotropic
 rho,cp,cs   =    1939.7220000000000        1474.0000000000000        267.98000000000002
 Qkappa, Qmu =    9999.0000000000000        9999.0000000000000
 Material is solid
 --------
 Material #          30  isotropic
 rho,cp,cs   =    1943.1972000000001        1483.9900000000000        275.67230000000001
 Qkappa, Qmu =    9999.0000000000000        9999.0000000000000
 Material is solid
 --------
 Material #          31  isotropic
 rho,cp,cs   =    2052.9830999999999        1826.0000000000000        539.01999999999998
 Qkappa, Qmu =    9999.0000000000000        9999.0000000000000
 Material is solid
 --------
 Material #          32  isotropic
 rho,cp,cs   =    1929.1810000000000        1444.0000000000000        244.88000000000000
 Qkappa, Qmu =    9999.0000000000000        9999.0000000000000
 Material is solid
 --------
 Material #          33  isotropic
 rho,cp,cs   =    2061.8649000000000        1855.9900000000000        562.11230000000000
 Qkappa, Qmu =    9999.0000000000000        9999.0000000000000
 Material is solid
 --------
 Material #          34  isotropic
 rho,cp,cs   =    1943.2007000000001        1484.0000000000000        275.68000000000001
 Qkappa, Qmu =    9999.0000000000000        9999.0000000000000
 Material is solid
 --------
 Material #          35  isotropic
 rho,cp,cs   =    1918.4812999999999        1414.0100000000000        221.78770000000000
 Qkappa, Qmu =    9999.0000000000000        9999.0000000000000
 Material is solid
 --------
 Material #          36  isotropic
 rho,cp,cs   =    2047.0001000000000        1806.0000000000000        523.62000000000000
 Qkappa, Qmu =    9999.0000000000000        9999.0000000000000
 Material is solid
 --------
 Material #          37  isotropic
 rho,cp,cs   =    1943.2007000000001        1484.0000000000000        275.68000000000001
 Qkappa, Qmu =    9999.0000000000000        9999.0000000000000
 Material is solid
 --------
 Material #          38  isotropic
 rho,cp,cs   =    2079.3283999999999        1916.0100000000000        608.32770000000005
 Qkappa, Qmu =    9999.0000000000000        9999.0000000000000
 Material is solid
 --------
 Material #          39  isotropic
 rho,cp,cs   =    1983.6581000000001        1604.0000000000000        368.07999999999998
 Qkappa, Qmu =    9999.0000000000000        9999.0000000000000
 Material is solid
 --------
 Material #          40  isotropic
 rho,cp,cs   =    2052.9830999999999        1826.0000000000000        539.01999999999998
 Qkappa, Qmu =    9999.0000000000000        9999.0000000000000
 Material is solid
 --------
 Material #          41  isotropic
 rho,cp,cs   =    2040.9683000000000        1786.0000000000000        508.22000000000003
 Qkappa, Qmu =    9999.0000000000000        9999.0000000000000
 Material is solid
 --------
 Material #          42  isotropic
 rho,cp,cs   =    2076.4441000000002        1906.0000000000000        600.62000000000000
 Qkappa, Qmu =    9999.0000000000000        9999.0000000000000
 Material is solid
 --------
 Material #          43  isotropic
 rho,cp,cs   =    1939.7220000000000        1474.0000000000000        267.98000000000002
 Qkappa, Qmu =    9999.0000000000000        9999.0000000000000
 Material is solid
 --------
 Material #          44  isotropic
 rho,cp,cs   =    2058.9180999999999        1846.0000000000000        554.41999999999996
 Qkappa, Qmu =    9999.0000000000000        9999.0000000000000
 Material is solid
 --------
 Material #          45  isotropic
 rho,cp,cs   =    1943.2040999999999        1484.0100000000000        275.68770000000001
 Qkappa, Qmu =    9999.0000000000000        9999.0000000000000
 Material is solid
 --------
 Material #          46  isotropic
 rho,cp,cs   =    2052.9830999999999        1826.0000000000000        539.01999999999998
 Qkappa, Qmu =    9999.0000000000000        9999.0000000000000
 Material is solid
 --------
 Material #          47  isotropic
 rho,cp,cs   =    2061.8679000000002        1856.0000000000000        562.12000000000000
 Qkappa, Qmu =    9999.0000000000000        9999.0000000000000
 Material is solid
 --------
 Material #          48  isotropic
 rho,cp,cs   =    1893.8972000000001        1346.8399999999999        170.06680000000000
 Qkappa, Qmu =    9999.0000000000000        9999.0000000000000
 Material is solid
 --------
 Material #          49  isotropic
 rho,cp,cs   =    1944.1855000000000        1486.8399999999999        277.86680000000001
 Qkappa, Qmu =    9999.0000000000000        9999.0000000000000
 Material is solid
 --------
 Material #          50  isotropic
 rho,cp,cs   =    2047.0001000000000        1806.0000000000000        523.62000000000000
 Qkappa, Qmu =    9999.0000000000000        9999.0000000000000
 Material is solid
 --------
 Material #          51  isotropic
 rho,cp,cs   =    1878.8262000000000        1306.8399999999999        139.26679999999999
 Qkappa, Qmu =    9999.0000000000000        9999.0000000000000
 Material is solid
 --------
 Material #          52  isotropic
 rho,cp,cs   =    1915.8950000000000        1406.8299999999999        216.25909999999999
 Qkappa, Qmu =    9999.0000000000000        9999.0000000000000
 Material is solid
 --------
 Material #          53  isotropic
 rho,cp,cs   =    1815.4398000000001        1409.0000000000000        276.83600000000001
 Qkappa, Qmu =    9999.0000000000000        9999.0000000000000
 Material is solid
 --------
 Material #          54  isotropic
 rho,cp,cs   =    1879.6486000000000        1309.0000000000000        140.93000000000001
 Qkappa, Qmu =    9999.0000000000000        9999.0000000000000
 Material is solid
 --------
 Material #          55  isotropic
 rho,cp,cs   =    2079.3254999999999        1916.0000000000000        608.32000000000005
 Qkappa, Qmu =    9999.0000000000000        9999.0000000000000
 Material is solid
 --------
 Material #          56  isotropic
 rho,cp,cs   =    1894.5061000000001        1659.0000000000000        477.83600000000001
 Qkappa, Qmu =    9999.0000000000000        9999.0000000000000
 Material is solid
 --------
 Material #          57  isotropic
 rho,cp,cs   =    2052.9830999999999        1826.0000000000000        539.01999999999998
 Qkappa, Qmu =    9999.0000000000000        9999.0000000000000
 Material is solid
 --------
 Material #          58  isotropic
 rho,cp,cs   =    1909.4301000000000        1389.0000000000000        202.53000000000000
 Qkappa, Qmu =    9999.0000000000000        9999.0000000000000
 Material is solid
 --------
 Material #          59  isotropic
 rho,cp,cs   =    1798.4003000000000        1359.0000000000000        236.63600000000000
 Qkappa, Qmu =    9999.0000000000000        9999.0000000000000
 Material is solid
 --------
 Material #          60  isotropic
 rho,cp,cs   =    2040.9683000000000        1786.0000000000000        508.22000000000003
 Qkappa, Qmu =    9999.0000000000000        9999.0000000000000
 Material is solid
 --------
 Material #          61  isotropic
 rho,cp,cs   =    1909.4301000000000        1389.0000000000000        202.53000000000000
 Qkappa, Qmu =    9999.0000000000000        9999.0000000000000
 Material is solid
 --------
 Material #          62  isotropic
 rho,cp,cs   =    2076.4468999999999        1906.0100000000000        600.62770000000000
 Qkappa, Qmu =    9999.0000000000000        9999.0000000000000
 Material is solid
 --------
 Material #          63  isotropic
 rho,cp,cs   =    2058.9180999999999        1846.0000000000000        554.41999999999996
 Qkappa, Qmu =    9999.0000000000000        9999.0000000000000
 Material is solid
 --------
 Material #          64  isotropic
 rho,cp,cs   =    1909.4301000000000        1389.0000000000000        202.53000000000000
 Qkappa, Qmu =    9999.0000000000000        9999.0000000000000
 Material is solid
 --------
 Material #          65  isotropic
 rho,cp,cs   =    1893.8972000000001        1346.8399999999999        170.06680000000000
 Qkappa, Qmu =    9999.0000000000000        9999.0000000000000
 Material is solid
 --------
 Material #          66  isotropic
 rho,cp,cs   =    1909.4301000000000        1389.0000000000000        202.53000000000000
 Qkappa, Qmu =    9999.0000000000000        9999.0000000000000
 Material is solid
 --------
 Material #          67  isotropic
 rho,cp,cs   =    1944.1855000000000        1486.8399999999999        277.86680000000001
 Qkappa, Qmu =    9999.0000000000000        9999.0000000000000
 Material is solid
 --------
 Material #          68  isotropic
 rho,cp,cs   =    1916.6777000000000        1409.0000000000000        217.93000000000001
 Qkappa, Qmu =    9999.0000000000000        9999.0000000000000
 Material is solid
 --------
 Material #          69  isotropic
 rho,cp,cs   =    1878.8262000000000        1306.8399999999999        139.26679999999999
 Qkappa, Qmu =    9999.0000000000000        9999.0000000000000
 Material is solid
 --------
 Material #          70  isotropic
 rho,cp,cs   =    1915.9022000000000        1406.8499999999999        216.27449999999999
 Qkappa, Qmu =    9999.0000000000000        9999.0000000000000
 Material is solid
 --------
 Material #          71  isotropic
 rho,cp,cs   =    1948.7308000000000        1500.0000000000000        288.00000000000000
 Qkappa, Qmu =    9999.0000000000000        9999.0000000000000
 Material is solid
 --------
 Material #          72  isotropic
 rho,cp,cs   =    1815.4398000000001        1409.0000000000000        276.83600000000001
 Qkappa, Qmu =    9999.0000000000000        9999.0000000000000
 Material is solid
 --------
 Material #          73  isotropic
 rho,cp,cs   =    2448.4890999999998        3550.0000000000000        1866.5000000000000
 Qkappa, Qmu =    9999.0000000000000        9999.0000000000000
 Material is solid
 --------
 Material #          74  isotropic
 rho,cp,cs   =    1879.6486000000000        1309.0000000000000        140.93000000000001
 Qkappa, Qmu =    9999.0000000000000        9999.0000000000000
 Material is solid
 --------
 Material #          75  isotropic
 rho,cp,cs   =    1894.5061000000001        1659.0000000000000        477.83600000000001
 Qkappa, Qmu =    9999.0000000000000        9999.0000000000000
 Material is solid
 --------
 Material #          76  isotropic
 rho,cp,cs   =    1909.4301000000000        1389.0000000000000        202.53000000000000
 Qkappa, Qmu =    9999.0000000000000        9999.0000000000000
 Material is solid
 --------
 Material #          77  isotropic
 rho,cp,cs   =    1948.7308000000000        1500.0000000000000        288.00000000000000
 Qkappa, Qmu =    9999.0000000000000        9999.0000000000000
 Material is solid
 --------
 Material #          78  isotropic
 rho,cp,cs   =    1798.4038000000000        1359.0100000000000        236.64400000000001
 Qkappa, Qmu =    9999.0000000000000        9999.0000000000000
 Material is solid
 --------
 Material #          79  isotropic
 rho,cp,cs   =    1948.7308000000000        1500.0000000000000        288.00000000000000
 Qkappa, Qmu =    9999.0000000000000        9999.0000000000000
 Material is solid
 --------
 Material #          80  isotropic
 rho,cp,cs   =    1916.6777000000000        1409.0000000000000        217.93000000000001
 Qkappa, Qmu =    9999.0000000000000        9999.0000000000000
 Material is solid
 --------
 Material #          81  isotropic
 rho,cp,cs   =    1909.4301000000000        1389.0000000000000        202.53000000000000
 Qkappa, Qmu =    9999.0000000000000        9999.0000000000000
 Material is solid
 --------
 Material #          82  isotropic
 rho,cp,cs   =    1871.9949999999999        1289.0000000000000        125.53000000000000
 Qkappa, Qmu =    9999.0000000000000        9999.0000000000000
 Material is solid
 --------
 Material #          83  isotropic
 rho,cp,cs   =    1968.7560000000001        1559.0000000000000        333.43000000000001
 Qkappa, Qmu =    9999.0000000000000        9999.0000000000000
 Material is solid
 --------
 Material #          84  isotropic
 rho,cp,cs   =    1916.6777000000000        1409.0000000000000        217.93000000000001
 Qkappa, Qmu =    9999.0000000000000        9999.0000000000000
 Material is solid
 --------
 Material #          85  isotropic
 rho,cp,cs   =    2207.2100000000000        2400.0000000000000        981.00000000000000
 Qkappa, Qmu =    9999.0000000000000        9999.0000000000000
 Material is solid
 --------
 Material #          86  isotropic
 rho,cp,cs   =    1890.9694999999999        1339.0000000000000        164.03000000000000
 Qkappa, Qmu =    9999.0000000000000        9999.0000000000000
 Material is solid
 --------
 Material #          87  isotropic
 rho,cp,cs   =    1916.6777000000000        1409.0000000000000        217.93000000000001
 Qkappa, Qmu =    9999.0000000000000        9999.0000000000000
 Material is solid
 --------
 Material #          88  isotropic
 rho,cp,cs   =    2207.2100000000000        2400.0000000000000        981.00000000000000
 Qkappa, Qmu =    9999.0000000000000        9999.0000000000000
 Material is solid
 --------
 Material #          89  isotropic
 rho,cp,cs   =    1890.9694999999999        1339.0000000000000        164.03000000000000
 Qkappa, Qmu =    9999.0000000000000        9999.0000000000000
 Material is solid
 --------
 Material #          90  isotropic
 rho,cp,cs   =    2207.2100000000000        2400.0000000000000        981.00000000000000
 Qkappa, Qmu =    9999.0000000000000        9999.0000000000000
 Material is solid
 --------
 Material #          91  isotropic
 rho,cp,cs   =    1916.6777000000000        1409.0000000000000        217.93000000000001
 Qkappa, Qmu =    9999.0000000000000        9999.0000000000000
 Material is solid
 --------
 Material #          92  isotropic
 rho,cp,cs   =    2265.9369999999999        2650.0000000000000        1173.5000000000000
 Qkappa, Qmu =    9999.0000000000000        9999.0000000000000
 Material is solid
 --------
 Material #          93  isotropic
 rho,cp,cs   =    1985.2949000000001        1609.0000000000000        371.93000000000001
 Qkappa, Qmu =    9999.0000000000000        9999.0000000000000
 Material is solid
 --------
 Material #          94  isotropic
 rho,cp,cs   =    2448.4890999999998        3550.0000000000000        1866.5000000000000
 Qkappa, Qmu =    9999.0000000000000        9999.0000000000000
 Material is solid
 --------
 Material #          95  isotropic
 rho,cp,cs   =    1937.7937999999999        1809.0000000000000        598.43600000000004
 Qkappa, Qmu =    9999.0000000000000        9999.0000000000000
 Material is solid
 --------
 Material #          96  isotropic
 rho,cp,cs   =    1985.2949000000001        1609.0000000000000        371.93000000000001
 Qkappa, Qmu =    9999.0000000000000        9999.0000000000000
 Material is solid
 --------
 Material #          97  isotropic
 rho,cp,cs   =    2411.1516999999999        3350.0000000000000        1712.5000000000000
 Qkappa, Qmu =    9999.0000000000000        9999.0000000000000
 Material is solid
 --------
 Material #          98  isotropic
 rho,cp,cs   =    2527.1648000000000        4000.0000000000000        2213.0000000000000
 Qkappa, Qmu =    9999.0000000000000        9999.0000000000000
 Material is solid
 --------
 Material #          99  isotropic
 rho,cp,cs   =    2439.3027000000002        3500.0000000000000        1828.0000000000000
 Qkappa, Qmu =    9999.0000000000000        9999.0000000000000
 Material is solid
 --------
 Material #         100  isotropic
 rho,cp,cs   =    2599.5792999999999        4450.0000000000000        2559.5000000000000
 Qkappa, Qmu =    9999.0000000000000        9999.0000000000000
 Material is solid
 --------
 Material #         101  isotropic
 rho,cp,cs   =    1916.6741000000000        1408.9900000000000        217.92230000000001
 Qkappa, Qmu =    9999.0000000000000        9999.0000000000000
 Material is solid
 --------
 Material #         102  isotropic
 rho,cp,cs   =    2527.1648000000000        4000.0000000000000        2213.0000000000000
 Qkappa, Qmu =    9999.0000000000000        9999.0000000000000
 Material is solid
 --------
 Material #         103  isotropic
 rho,cp,cs   =    1871.9949999999999        1289.0000000000000        125.53000000000000
 Qkappa, Qmu =    9999.0000000000000        9999.0000000000000
 Material is solid
 --------
 Material #         104  isotropic
 rho,cp,cs   =    1968.7560000000001        1559.0000000000000        333.43000000000001
 Qkappa, Qmu =    9999.0000000000000        9999.0000000000000
 Material is solid
 --------
 Material #         105  isotropic
 rho,cp,cs   =    2487.8152000000000        3770.0000000000000        2035.9000000000001
 Qkappa, Qmu =    9999.0000000000000        9999.0000000000000
 Material is solid
 --------
 Material #         106  isotropic
 rho,cp,cs   =    1916.6777000000000        1409.0000000000000        217.93000000000001
 Qkappa, Qmu =    9999.0000000000000        9999.0000000000000
 Material is solid
 --------
 Material #         107  isotropic
 rho,cp,cs   =    1985.2916000000000        1608.9900000000000        371.92230000000001
 Qkappa, Qmu =    9999.0000000000000        9999.0000000000000
 Material is solid
 --------
 Material #         108  isotropic
 rho,cp,cs   =    1916.6813000000000        1409.0100000000000        217.93770000000001
 Qkappa, Qmu =    9999.0000000000000        9999.0000000000000
 Material is solid
 --------
 Material #         109  isotropic
 rho,cp,cs   =    2527.1648000000000        4000.0000000000000        2213.0000000000000
 Qkappa, Qmu =    9999.0000000000000        9999.0000000000000
 Material is solid
 --------
 Material #         110  isotropic
 rho,cp,cs   =    2231.2168000000001        2500.0000000000000        1058.0000000000000
 Qkappa, Qmu =    9999.0000000000000        9999.0000000000000
 Material is solid
 --------
 Material #         111  isotropic
 rho,cp,cs   =    1890.9657000000000        1338.9900000000000        164.02230000000000
 Qkappa, Qmu =    9999.0000000000000        9999.0000000000000
 Material is solid
 --------
 Material #         112  isotropic
 rho,cp,cs   =    2265.9369999999999        2650.0000000000000        1173.5000000000000
 Qkappa, Qmu =    9999.0000000000000        9999.0000000000000
 Material is solid
 --------
 Material #         113  isotropic
 rho,cp,cs   =    1916.6777000000000        1409.0000000000000        217.93000000000001
 Qkappa, Qmu =    9999.0000000000000        9999.0000000000000
 Material is solid
 --------
 Material #         114  isotropic
 rho,cp,cs   =    1985.2949000000001        1609.0000000000000        371.93000000000001
 Qkappa, Qmu =    9999.0000000000000        9999.0000000000000
 Material is solid
 --------
 Material #         115  isotropic
 rho,cp,cs   =    2140.0000000000000        2874.0000000000000        1604.0000000000000
 Qkappa, Qmu =    9999.0000000000000        9999.0000000000000
 Material is solid
 --------
 Material #         116  isotropic
 rho,cp,cs   =    1985.2916000000000        1608.9900000000000        371.92230000000001
 Qkappa, Qmu =    9999.0000000000000        9999.0000000000000
 Material is solid
 --------
 Material #         117  isotropic
 rho,cp,cs   =    2216.8993000000000        2440.0000000000000        1011.8000000000000
 Qkappa, Qmu =    9999.0000000000000        9999.0000000000000
 Material is solid
 --------
 Material #         118  isotropic
 rho,cp,cs   =    2527.1648000000000        4000.0000000000000        2213.0000000000000
 Qkappa, Qmu =    9999.0000000000000        9999.0000000000000
 Material is solid
 --------
 Material #         119  isotropic
 rho,cp,cs   =    2599.5792999999999        4450.0000000000000        2559.5000000000000
 Qkappa, Qmu =    9999.0000000000000        9999.0000000000000
 Material is solid
 --------
 Material #         120  isotropic
 rho,cp,cs   =    2527.1648000000000        4000.0000000000000        2213.0000000000000
 Qkappa, Qmu =    9999.0000000000000        9999.0000000000000
 Material is solid
 --------
 Material #         121  isotropic
 rho,cp,cs   =    2231.2168000000001        2500.0000000000000        1058.0000000000000
 Qkappa, Qmu =    9999.0000000000000        9999.0000000000000
 Material is solid
 --------
 Material #         122  isotropic
 rho,cp,cs   =    2487.8152000000000        3770.0000000000000        2035.9000000000001
 Qkappa, Qmu =    9999.0000000000000        9999.0000000000000
 Material is solid
 --------
 Material #         123  isotropic
 rho,cp,cs   =    2527.1648000000000        4000.0000000000000        2213.0000000000000
 Qkappa, Qmu =    9999.0000000000000        9999.0000000000000
 Material is solid
 --------
 Material #         124  isotropic
 rho,cp,cs   =    2231.2168000000001        2500.0000000000000        1058.0000000000000
 Qkappa, Qmu =    9999.0000000000000        9999.0000000000000
 Material is solid
 --------
 Material #         125  isotropic
 rho,cp,cs   =    2265.9369999999999        2650.0000000000000        1173.5000000000000
 Qkappa, Qmu =    9999.0000000000000        9999.0000000000000
 Material is solid
 --------
 Material #         126  isotropic
 rho,cp,cs   =    2216.8993000000000        2440.0000000000000        1011.8000000000000
 Qkappa, Qmu =    9999.0000000000000        9999.0000000000000
 Material is solid
 --------
 Material #         127  isotropic
 rho,cp,cs   =    2231.2168000000001        2500.0000000000000        1058.0000000000000
 Qkappa, Qmu =    9999.0000000000000        9999.0000000000000
 Material is solid
 --------
 Material #         128  isotropic
 rho,cp,cs   =    1960.3398999999999        1534.0000000000000        314.18000000000001
 Qkappa, Qmu =    9999.0000000000000        9999.0000000000000
 Material is solid
 --------
 Material #         129  isotropic
 rho,cp,cs   =    1960.3398999999999        1534.0000000000000        314.18000000000001
 Qkappa, Qmu =    9999.0000000000000        9999.0000000000000
 Material is solid
 --------
 Material #         130  isotropic
 rho,cp,cs   =    1960.3398999999999        1534.0000000000000        314.18000000000001
 Qkappa, Qmu =    9999.0000000000000        9999.0000000000000
 Material is solid
 --------
 Material #         131  isotropic
 rho,cp,cs   =    1983.6581000000001        1604.0000000000000        368.07999999999998
 Qkappa, Qmu =    9999.0000000000000        9999.0000000000000
 Material is solid
 --------
 Material #         132  isotropic
 rho,cp,cs   =    1939.7220000000000        1474.0000000000000        267.98000000000002
 Qkappa, Qmu =    9999.0000000000000        9999.0000000000000
 Material is solid
 --------
 Material #         133  isotropic
 rho,cp,cs   =    1929.1810000000000        1444.0000000000000        244.88000000000000
 Qkappa, Qmu =    9999.0000000000000        9999.0000000000000
 Material is solid
 --------
 Material #         134  isotropic
 rho,cp,cs   =    1943.2007000000001        1484.0000000000000        275.68000000000001
 Qkappa, Qmu =    9999.0000000000000        9999.0000000000000
 Material is solid
 --------
 Material #         135  isotropic
 rho,cp,cs   =    1820.4644000000001        1424.0000000000000        288.89600000000002
 Qkappa, Qmu =    9999.0000000000000        9999.0000000000000
 Material is solid
 --------
 Material #         136  isotropic
 rho,cp,cs   =    1918.4740999999999        1413.9900000000000        221.77230000000000
 Qkappa, Qmu =    9999.0000000000000        9999.0000000000000
 Material is solid
 --------
 Material #         137  isotropic
 rho,cp,cs   =    1943.2007000000001        1484.0000000000000        275.68000000000001
 Qkappa, Qmu =    9999.0000000000000        9999.0000000000000
 Material is solid
 --------
 Material #         138  isotropic
 rho,cp,cs   =    1983.6614000000000        1604.0100000000000        368.08769999999998
 Qkappa, Qmu =    9999.0000000000000        9999.0000000000000
 Material is solid
 --------
 Material #         139  isotropic
 rho,cp,cs   =    1939.7220000000000        1474.0000000000000        267.98000000000002
 Qkappa, Qmu =    9999.0000000000000        9999.0000000000000
 Material is solid
 --------
 Material #         140  isotropic
 rho,cp,cs   =    1820.4677999999999        1424.0100000000000        288.90400000000000
 Qkappa, Qmu =    9999.0000000000000        9999.0000000000000
 Material is solid
 --------
 Material #         141  isotropic
 rho,cp,cs   =    1943.2007000000001        1484.0000000000000        275.68000000000001
 Qkappa, Qmu =    9999.0000000000000        9999.0000000000000
 Material is solid
 --------
 Material #         142  isotropic
 rho,cp,cs   =    2052.9801000000002        1825.9900000000000        539.01229999999998
 Qkappa, Qmu =    9999.0000000000000        9999.0000000000000
 Material is solid
 --------
 Material #         143  isotropic
 rho,cp,cs   =    2061.8679000000002        1856.0000000000000        562.12000000000000
 Qkappa, Qmu =    9999.0000000000000        9999.0000000000000
 Material is solid
 --------
 Material #         144  isotropic
 rho,cp,cs   =    2047.0001000000000        1806.0000000000000        523.62000000000000
 Qkappa, Qmu =    9999.0000000000000        9999.0000000000000
 Material is solid
 --------
 Material #         145  isotropic
 rho,cp,cs   =    2079.3254999999999        1916.0000000000000        608.32000000000005
 Qkappa, Qmu =    9999.0000000000000        9999.0000000000000
 Material is solid
 --------
 Material #         146  isotropic
 rho,cp,cs   =    2052.9830999999999        1826.0000000000000        539.01999999999998
 Qkappa, Qmu =    9999.0000000000000        9999.0000000000000
 Material is solid
 --------
 Material #         147  isotropic
 rho,cp,cs   =    2040.9683000000000        1786.0000000000000        508.22000000000003
 Qkappa, Qmu =    9999.0000000000000        9999.0000000000000
 Material is solid
 --------
 Material #         148  isotropic
 rho,cp,cs   =    2076.4441000000002        1906.0000000000000        600.62000000000000
 Qkappa, Qmu =    9999.0000000000000        9999.0000000000000
 Material is solid
 --------
 Material #         149  isotropic
 rho,cp,cs   =    2058.9180999999999        1846.0000000000000        554.41999999999996
 Qkappa, Qmu =    9999.0000000000000        9999.0000000000000
 Material is solid
 --------
 Material #         150  isotropic
 rho,cp,cs   =    1893.9010000000001        1346.8499999999999        170.07450000000000
 Qkappa, Qmu =    9999.0000000000000        9999.0000000000000
 Material is solid
 --------
 Material #         151  isotropic
 rho,cp,cs   =    1944.1820000000000        1486.8299999999999        277.85910000000001
 Qkappa, Qmu =    9999.0000000000000        9999.0000000000000
 Material is solid
 --------
 Material #         152  isotropic
 rho,cp,cs   =    1878.8299999999999        1306.8499999999999        139.27449999999999
 Qkappa, Qmu =    9999.0000000000000        9999.0000000000000
 Material is solid
 --------
 Material #         153  isotropic
 rho,cp,cs   =    1915.8950000000000        1406.8299999999999        216.25909999999999
 Qkappa, Qmu =    9999.0000000000000        9999.0000000000000
 Material is solid
 --------
 Material #         154  isotropic
 rho,cp,cs   =    1815.4398000000001        1409.0000000000000        276.83600000000001
 Qkappa, Qmu =    9999.0000000000000        9999.0000000000000
 Material is solid
 --------
 Material #         155  isotropic
 rho,cp,cs   =    1879.6448000000000        1308.9900000000000        140.92230000000001
 Qkappa, Qmu =    9999.0000000000000        9999.0000000000000
 Material is solid
 --------
 Material #         156  isotropic
 rho,cp,cs   =    1894.5061000000001        1659.0000000000000        477.83600000000001
 Qkappa, Qmu =    9999.0000000000000        9999.0000000000000
 Material is solid
 --------
 Material #         157  isotropic
 rho,cp,cs   =    1909.4337000000000        1389.0100000000000        202.53770000000000
 Qkappa, Qmu =    9999.0000000000000        9999.0000000000000
 Material is solid
 --------
 Material #         158  isotropic
 rho,cp,cs   =    1798.4003000000000        1359.0000000000000        236.63600000000000
 Qkappa, Qmu =    9999.0000000000000        9999.0000000000000
 Material is solid
 --------
 Material #         159  isotropic
 rho,cp,cs   =    1909.4337000000000        1389.0100000000000        202.53770000000000
 Qkappa, Qmu =    9999.0000000000000        9999.0000000000000
 Material is solid
 --------
 Material #         160  isotropic
 rho,cp,cs   =    2207.2100000000000        2400.0000000000000        981.00000000000000
 Qkappa, Qmu =    9999.0000000000000        9999.0000000000000
 Material is solid
 --------
 Material #         161  isotropic
 rho,cp,cs   =    2207.2100000000000        2400.0000000000000        981.00000000000000
 Qkappa, Qmu =    9999.0000000000000        9999.0000000000000
 Material is solid
 --------
 Material #         162  isotropic
 rho,cp,cs   =    2207.2100000000000        2400.0000000000000        981.00000000000000
 Qkappa, Qmu =    9999.0000000000000        9999.0000000000000
 Material is solid
 --------
 Material #         163  isotropic
 rho,cp,cs   =    2265.9369999999999        2650.0000000000000        1173.5000000000000
 Qkappa, Qmu =    9999.0000000000000        9999.0000000000000
 Material is solid
 --------
 Material #         164  isotropic
 rho,cp,cs   =    2448.4890999999998        3550.0000000000000        1866.5000000000000
 Qkappa, Qmu =    9999.0000000000000        9999.0000000000000
 Material is solid
 --------
 Material #         165  isotropic
 rho,cp,cs   =    2411.1516999999999        3350.0000000000000        1712.5000000000000
 Qkappa, Qmu =    9999.0000000000000        9999.0000000000000
 Material is solid
 --------
 Material #         166  isotropic
 rho,cp,cs   =    2439.3027000000002        3500.0000000000000        1828.0000000000000
 Qkappa, Qmu =    9999.0000000000000        9999.0000000000000
 Material is solid
 --------
 Material #         167  isotropic
 rho,cp,cs   =    1916.6777000000000        1409.0000000000000        217.93000000000001
 Qkappa, Qmu =    9999.0000000000000        9999.0000000000000
 Material is solid
 --------
 Material #         168  isotropic
 rho,cp,cs   =    1871.9949999999999        1289.0000000000000        125.53000000000000
 Qkappa, Qmu =    9999.0000000000000        9999.0000000000000
 Material is solid
 --------
 Material #         169  isotropic
 rho,cp,cs   =    1968.7560000000001        1559.0000000000000        333.43000000000001
 Qkappa, Qmu =    9999.0000000000000        9999.0000000000000
 Material is solid
 --------
 Material #         170  isotropic
 rho,cp,cs   =    1916.6777000000000        1409.0000000000000        217.93000000000001
 Qkappa, Qmu =    9999.0000000000000        9999.0000000000000
 Material is solid
 --------
 Material #         171  isotropic
 rho,cp,cs   =    1985.2949000000001        1609.0000000000000        371.93000000000001
 Qkappa, Qmu =    9999.0000000000000        9999.0000000000000
 Material is solid
 --------
 Material #         172  isotropic
 rho,cp,cs   =    1916.6777000000000        1409.0000000000000        217.93000000000001
 Qkappa, Qmu =    9999.0000000000000        9999.0000000000000
 Material is solid
 --------
 Material #         173  isotropic
 rho,cp,cs   =    1890.9694999999999        1339.0000000000000        164.03000000000000
 Qkappa, Qmu =    9999.0000000000000        9999.0000000000000
 Material is solid
 --------
 Material #         174  isotropic
 rho,cp,cs   =    1916.6777000000000        1409.0000000000000        217.93000000000001
 Qkappa, Qmu =    9999.0000000000000        9999.0000000000000
 Material is solid
 --------
 Material #         175  isotropic
 rho,cp,cs   =    1985.2949000000001        1609.0000000000000        371.93000000000001
 Qkappa, Qmu =    9999.0000000000000        9999.0000000000000
 Material is solid
 --------
 Material #         176  isotropic
 rho,cp,cs   =    2030.0000000000000        2783.0000000000000        1645.0000000000000
 Qkappa, Qmu =    9999.0000000000000        9999.0000000000000
 Material is solid
 --------
 Material #         177  isotropic
 rho,cp,cs   =    1985.2916000000000        1608.9900000000000        371.92230000000001
 Qkappa, Qmu =    9999.0000000000000        9999.0000000000000
 Material is solid
 --------
 Material #         178  isotropic
 rho,cp,cs   =    2527.1648000000000        4000.0000000000000        2213.0000000000000
 Qkappa, Qmu =    9999.0000000000000        9999.0000000000000
 Material is solid
 --------
 Material #         179  isotropic
 rho,cp,cs   =    2599.5792999999999        4450.0000000000000        2559.5000000000000
 Qkappa, Qmu =    9999.0000000000000        9999.0000000000000
 Material is solid
 --------
 Material #         180  isotropic
 rho,cp,cs   =    2527.1648000000000        4000.0000000000000        2213.0000000000000
 Qkappa, Qmu =    9999.0000000000000        9999.0000000000000
 Material is solid
 --------
 Material #         181  isotropic
 rho,cp,cs   =    2487.8152000000000        3770.0000000000000        2035.9000000000001
 Qkappa, Qmu =    9999.0000000000000        9999.0000000000000
 Material is solid
 --------
 Material #         182  isotropic
 rho,cp,cs   =    2527.1648000000000        4000.0000000000000        2213.0000000000000
 Qkappa, Qmu =    9999.0000000000000        9999.0000000000000
 Material is solid
 --------
 Material #         183  isotropic
 rho,cp,cs   =    2231.2168000000001        2500.0000000000000        1058.0000000000000
 Qkappa, Qmu =    9999.0000000000000        9999.0000000000000
 Material is solid
 --------
 Material #         184  isotropic
 rho,cp,cs   =    2265.9369999999999        2650.0000000000000        1173.5000000000000
 Qkappa, Qmu =    9999.0000000000000        9999.0000000000000
 Material is solid
 --------
 Material #         185  isotropic
 rho,cp,cs   =    1960.3398999999999        1534.0000000000000        314.18000000000001
 Qkappa, Qmu =    9999.0000000000000        9999.0000000000000
 Material is solid
 --------
 Material #         186  isotropic
 rho,cp,cs   =    1960.3398999999999        1534.0000000000000        314.18000000000001
 Qkappa, Qmu =    9999.0000000000000        9999.0000000000000
 Material is solid
 --------
 Material #         187  isotropic
 rho,cp,cs   =    1929.1810000000000        1444.0000000000000        244.88000000000000
 Qkappa, Qmu =    9999.0000000000000        9999.0000000000000
 Material is solid
 --------
 Material #         188  isotropic
 rho,cp,cs   =    1977.0734000000000        1584.0000000000000        352.68000000000001
 Qkappa, Qmu =    9999.0000000000000        9999.0000000000000
 Material is solid
 --------
 Material #         189  isotropic
 rho,cp,cs   =    1960.3398999999999        1534.0000000000000        314.18000000000001
 Qkappa, Qmu =    9999.0000000000000        9999.0000000000000
 Material is solid
 --------
 Material #         190  isotropic
 rho,cp,cs   =    1983.6581000000001        1604.0000000000000        368.07999999999998
 Qkappa, Qmu =    9999.0000000000000        9999.0000000000000
 Material is solid
 --------
 Material #         191  isotropic
 rho,cp,cs   =    1939.7220000000000        1474.0000000000000        267.98000000000002
 Qkappa, Qmu =    9999.0000000000000        9999.0000000000000
 Material is solid
 --------
 Material #         192  isotropic
 rho,cp,cs   =    1929.1810000000000        1444.0000000000000        244.88000000000000
 Qkappa, Qmu =    9999.0000000000000        9999.0000000000000
 Material is solid
 --------
 Material #         193  isotropic
 rho,cp,cs   =    1943.2007000000001        1484.0000000000000        275.68000000000001
 Qkappa, Qmu =    9999.0000000000000        9999.0000000000000
 Material is solid
 --------
 Material #         194  isotropic
 rho,cp,cs   =    1918.4776999999999        1414.0000000000000        221.78000000000000
 Qkappa, Qmu =    9999.0000000000000        9999.0000000000000
 Material is solid
 --------
 Material #         195  isotropic
 rho,cp,cs   =    1943.2007000000001        1484.0000000000000        275.68000000000001
 Qkappa, Qmu =    9999.0000000000000        9999.0000000000000
 Material is solid
 --------
 Material #         196  isotropic
 rho,cp,cs   =    1983.6548000000000        1603.9900000000000        368.07229999999998
 Qkappa, Qmu =    9999.0000000000000        9999.0000000000000
 Material is solid
 --------
 Material #         197  isotropic
 rho,cp,cs   =    1939.7220000000000        1474.0000000000000        267.98000000000002
 Qkappa, Qmu =    9999.0000000000000        9999.0000000000000
 Material is solid
 --------
 Material #         198  isotropic
 rho,cp,cs   =    1820.4644000000001        1424.0000000000000        288.89600000000002
 Qkappa, Qmu =    9999.0000000000000        9999.0000000000000
 Material is solid
 --------
 Material #         199  isotropic
 rho,cp,cs   =    1943.2007000000001        1484.0000000000000        275.68000000000001
 Qkappa, Qmu =    9999.0000000000000        9999.0000000000000
 Material is solid
 --------
 Material #         200  isotropic
 rho,cp,cs   =    2052.9830999999999        1826.0000000000000        539.01999999999998
 Qkappa, Qmu =    9999.0000000000000        9999.0000000000000
 Material is solid
 --------
 Material #         201  isotropic
 rho,cp,cs   =    1798.4003000000000        1359.0000000000000        236.63600000000000
 Qkappa, Qmu =    9999.0000000000000        9999.0000000000000
 Material is solid
 --------
 Material #         202  isotropic
 rho,cp,cs   =    2061.8679000000002        1856.0000000000000        562.12000000000000
 Qkappa, Qmu =    9999.0000000000000        9999.0000000000000
 Material is solid
 --------
 Material #         203  isotropic
 rho,cp,cs   =    2047.0001000000000        1806.0000000000000        523.62000000000000
 Qkappa, Qmu =    9999.0000000000000        9999.0000000000000
 Material is solid
 --------
 Material #         204  isotropic
 rho,cp,cs   =    2079.3254999999999        1916.0000000000000        608.32000000000005
 Qkappa, Qmu =    9999.0000000000000        9999.0000000000000
 Material is solid
 --------
 Material #         205  isotropic
 rho,cp,cs   =    2052.9830999999999        1826.0000000000000        539.01999999999998
 Qkappa, Qmu =    9999.0000000000000        9999.0000000000000
 Material is solid
 --------
 Material #         206  isotropic
 rho,cp,cs   =    2040.9683000000000        1786.0000000000000        508.22000000000003
 Qkappa, Qmu =    9999.0000000000000        9999.0000000000000
 Material is solid
 --------
 Material #         207  isotropic
 rho,cp,cs   =    2076.4441000000002        1906.0000000000000        600.62000000000000
 Qkappa, Qmu =    9999.0000000000000        9999.0000000000000
 Material is solid
 --------
 Material #         208  isotropic
 rho,cp,cs   =    2058.9209999999998        1846.0100000000000        554.42769999999996
 Qkappa, Qmu =    9999.0000000000000        9999.0000000000000
 Material is solid
 --------
 Material #         209  isotropic
 rho,cp,cs   =    1893.8934999999999        1346.8299999999999        170.05910000000000
 Qkappa, Qmu =    9999.0000000000000        9999.0000000000000
 Material is solid
 --------
 Material #         210  isotropic
 rho,cp,cs   =    1944.1855000000000        1486.8399999999999        277.86680000000001
 Qkappa, Qmu =    9999.0000000000000        9999.0000000000000
 Material is solid
 --------
 Material #         211  isotropic
 rho,cp,cs   =    1878.8262000000000        1306.8399999999999        139.26679999999999
 Qkappa, Qmu =    9999.0000000000000        9999.0000000000000
 Material is solid
 --------
 Material #         212  isotropic
 rho,cp,cs   =    1915.8986000000000        1406.8399999999999        216.26679999999999
 Qkappa, Qmu =    9999.0000000000000        9999.0000000000000
 Material is solid
 --------
 Material #         213  isotropic
 rho,cp,cs   =    1815.4398000000001        1409.0000000000000        276.83600000000001
 Qkappa, Qmu =    9999.0000000000000        9999.0000000000000
 Material is solid
 --------
 Material #         214  isotropic
 rho,cp,cs   =    1879.6486000000000        1309.0000000000000        140.93000000000001
 Qkappa, Qmu =    9999.0000000000000        9999.0000000000000
 Material is solid
 --------
 Material #         215  isotropic
 rho,cp,cs   =    1894.5090000000000        1659.0100000000000        477.84399999999999
 Qkappa, Qmu =    9999.0000000000000        9999.0000000000000
 Material is solid
 --------
 Material #         216  isotropic
 rho,cp,cs   =    1909.4301000000000        1389.0000000000000        202.53000000000000
 Qkappa, Qmu =    9999.0000000000000        9999.0000000000000
 Material is solid
 --------
 Material #         217  isotropic
 rho,cp,cs   =    1798.3969000000000        1358.9900000000000        236.62799999999999
 Qkappa, Qmu =    9999.0000000000000        9999.0000000000000
 Material is solid
 --------
 Material #         218  isotropic
 rho,cp,cs   =    1909.4301000000000        1389.0000000000000        202.53000000000000
 Qkappa, Qmu =    9999.0000000000000        9999.0000000000000
 Material is solid
 --------
 Material #         219  isotropic
 rho,cp,cs   =    2086.1774000000000        2400.0000000000000        1073.5999999999999
 Qkappa, Qmu =    9999.0000000000000        9999.0000000000000
 Material is solid
 --------
 Material #         220  isotropic
 rho,cp,cs   =    2207.2100000000000        2400.0000000000000        981.00000000000000
 Qkappa, Qmu =    9999.0000000000000        9999.0000000000000
 Material is solid
 --------
 Material #         221  isotropic
 rho,cp,cs   =    2265.9369999999999        2650.0000000000000        1173.5000000000000
 Qkappa, Qmu =    9999.0000000000000        9999.0000000000000
 Material is solid
 --------
 Material #         222  isotropic
 rho,cp,cs   =    2448.4890999999998        3550.0000000000000        1866.5000000000000
 Qkappa, Qmu =    9999.0000000000000        9999.0000000000000
 Material is solid
 --------
 Material #         223  isotropic
 rho,cp,cs   =    2411.1516999999999        3350.0000000000000        1712.5000000000000
 Qkappa, Qmu =    9999.0000000000000        9999.0000000000000
 Material is solid
 --------
 Material #         224  isotropic
 rho,cp,cs   =    2439.3027000000002        3500.0000000000000        1828.0000000000000
 Qkappa, Qmu =    9999.0000000000000        9999.0000000000000
 Material is solid
 --------
 Material #         225  isotropic
 rho,cp,cs   =    1916.6813000000000        1409.0100000000000        217.93770000000001
 Qkappa, Qmu =    9999.0000000000000        9999.0000000000000
 Material is solid
 --------
 Material #         226  isotropic
 rho,cp,cs   =    1871.9949999999999        1289.0000000000000        125.53000000000000
 Qkappa, Qmu =    9999.0000000000000        9999.0000000000000
 Material is solid
 --------
 Material #         227  isotropic
 rho,cp,cs   =    1968.7560000000001        1559.0000000000000        333.43000000000001
 Qkappa, Qmu =    9999.0000000000000        9999.0000000000000
 Material is solid
 --------
 Material #         228  isotropic
 rho,cp,cs   =    1916.6777000000000        1409.0000000000000        217.93000000000001
 Qkappa, Qmu =    9999.0000000000000        9999.0000000000000
 Material is solid
 --------
 Material #         229  isotropic
 rho,cp,cs   =    1985.2949000000001        1609.0000000000000        371.93000000000001
 Qkappa, Qmu =    9999.0000000000000        9999.0000000000000
 Material is solid
 --------
 Material #         230  isotropic
 rho,cp,cs   =    1890.9694999999999        1339.0000000000000        164.03000000000000
 Qkappa, Qmu =    9999.0000000000000        9999.0000000000000
 Material is solid
 --------
 Material #         231  isotropic
 rho,cp,cs   =    1916.6777000000000        1409.0000000000000        217.93000000000001
 Qkappa, Qmu =    9999.0000000000000        9999.0000000000000
 Material is solid
 --------
 Material #         232  isotropic
 rho,cp,cs   =    1985.2916000000000        1608.9900000000000        371.92230000000001
 Qkappa, Qmu =    9999.0000000000000        9999.0000000000000
 Material is solid
 --------
 Material #         233  isotropic
 rho,cp,cs   =    1937.7909999999999        1808.9900000000000        598.42800000000000
 Qkappa, Qmu =    9999.0000000000000        9999.0000000000000
 Material is solid
 --------
 Material #         234  isotropic
 rho,cp,cs   =    2527.1648000000000        4000.0000000000000        2213.0000000000000
 Qkappa, Qmu =    9999.0000000000000        9999.0000000000000
 Material is solid
 --------
 Material #         235  isotropic
 rho,cp,cs   =    2599.5792999999999        4450.0000000000000        2559.5000000000000
 Qkappa, Qmu =    9999.0000000000000        9999.0000000000000
 Material is solid
 --------
 Material #         236  isotropic
 rho,cp,cs   =    2527.1648000000000        4000.0000000000000        2213.0000000000000
 Qkappa, Qmu =    9999.0000000000000        9999.0000000000000
 Material is solid
 --------
 Material #         237  isotropic
 rho,cp,cs   =    2487.8152000000000        3770.0000000000000        2035.9000000000001
 Qkappa, Qmu =    9999.0000000000000        9999.0000000000000
 Material is solid
 --------
 Material #         238  isotropic
 rho,cp,cs   =    2527.1648000000000        4000.0000000000000        2213.0000000000000
 Qkappa, Qmu =    9999.0000000000000        9999.0000000000000
 Material is solid
 --------
 Material #         239  isotropic
 rho,cp,cs   =    2231.2168000000001        2500.0000000000000        1058.0000000000000
 Qkappa, Qmu =    9999.0000000000000        9999.0000000000000
 Material is solid
 --------
 Material #         240  isotropic
 rho,cp,cs   =    1010.0000000000000        1500.0000000000000        0.0000000000000000
 Qkappa, Qmu =    9999.0000000000000        9999.0000000000000
 Material is fluid
 --------
 Material #         241  isotropic
 rho,cp,cs   =    1969.9563000000001        1562.5899999999999        336.19430000000000
 Qkappa, Qmu =    9999.0000000000000        9999.0000000000000
 Material is solid
 --------
 Material #         242  isotropic
 rho,cp,cs   =    1960.3398999999999        1534.0000000000000        314.18000000000001
 Qkappa, Qmu =    9999.0000000000000        9999.0000000000000
 Material is solid
 --------
 Material #         243  isotropic
 rho,cp,cs   =    1993.4230000000000        1634.0000000000000        391.18000000000001
 Qkappa, Qmu =    9999.0000000000000        9999.0000000000000
 Material is solid
 --------
 Material #         244  isotropic
 rho,cp,cs   =    1960.3398999999999        1534.0000000000000        314.18000000000001
 Qkappa, Qmu =    9999.0000000000000        9999.0000000000000
 Material is solid
 --------
 Material #         245  isotropic
 rho,cp,cs   =    1943.2007000000001        1484.0000000000000        275.68000000000001
 Qkappa, Qmu =    9999.0000000000000        9999.0000000000000
 Material is solid
 --------
 Material #         246  isotropic
 rho,cp,cs   =    1856.1647000000000        1534.0000000000000        377.33600000000001
 Qkappa, Qmu =    9999.0000000000000        9999.0000000000000
 Material is solid
 --------
 Material #         247  isotropic
 rho,cp,cs   =    1977.0734000000000        1584.0000000000000        352.68000000000001
 Qkappa, Qmu =    9999.0000000000000        9999.0000000000000
 Material is solid
 --------
 Material #         248  isotropic
 rho,cp,cs   =    1929.1774000000000        1443.9900000000000        244.87230000000000
 Qkappa, Qmu =    9999.0000000000000        9999.0000000000000
 Material is solid
 --------
 Material #         249  isotropic
 rho,cp,cs   =    1943.2007000000001        1484.0000000000000        275.68000000000001
 Qkappa, Qmu =    9999.0000000000000        9999.0000000000000
 Material is solid
 --------
 Material #         250  isotropic
 rho,cp,cs   =    1960.3398999999999        1534.0000000000000        314.18000000000001
 Qkappa, Qmu =    9999.0000000000000        9999.0000000000000
 Material is solid
 --------
 Material #         251  isotropic
 rho,cp,cs   =    1914.8729000000001        1404.0000000000000        214.08000000000001
 Qkappa, Qmu =    9999.0000000000000        9999.0000000000000
 Material is solid
 --------
 Material #         252  isotropic
 rho,cp,cs   =    1970.4273000000001        1564.0000000000000        337.27999999999997
 Qkappa, Qmu =    9999.0000000000000        9999.0000000000000
 Material is solid
 --------
 Material #         253  isotropic
 rho,cp,cs   =    1943.2007000000001        1484.0000000000000        275.68000000000001
 Qkappa, Qmu =    9999.0000000000000        9999.0000000000000
 Material is solid
 --------
 Material #         254  isotropic
 rho,cp,cs   =    1918.4776999999999        1414.0000000000000        221.78000000000000
 Qkappa, Qmu =    9999.0000000000000        9999.0000000000000
 Material is solid
 --------
 Material #         255  isotropic
 rho,cp,cs   =    1936.2225000000001        1463.9900000000000        260.27229999999997
 Qkappa, Qmu =    9999.0000000000000        9999.0000000000000
 Material is solid
 --------
 Material #         256  isotropic
 rho,cp,cs   =    1820.4644000000001        1424.0000000000000        288.89600000000002
 Qkappa, Qmu =    9999.0000000000000        9999.0000000000000
 Material is solid
 --------
 Material #         257  isotropic
 rho,cp,cs   =    2040.9712999999999        1786.0100000000000        508.22770000000003
 Qkappa, Qmu =    9999.0000000000000        9999.0000000000000
 Material is solid
 --------
 Material #         258  isotropic
 rho,cp,cs   =    2052.9861000000001        1826.0100000000000        539.02769999999998
 Qkappa, Qmu =    9999.0000000000000        9999.0000000000000
 Material is solid
 --------
 Material #         259  isotropic
 rho,cp,cs   =    2079.3254999999999        1916.0000000000000        608.32000000000005
 Qkappa, Qmu =    9999.0000000000000        9999.0000000000000
 Material is solid
 --------
 Material #         260  isotropic
 rho,cp,cs   =    2047.0001000000000        1806.0000000000000        523.62000000000000
 Qkappa, Qmu =    9999.0000000000000        9999.0000000000000
 Material is solid
 --------
 Material #         261  isotropic
 rho,cp,cs   =    2061.8679000000002        1856.0000000000000        562.12000000000000
 Qkappa, Qmu =    9999.0000000000000        9999.0000000000000
 Material is solid
 --------
 Material #         262  isotropic
 rho,cp,cs   =    2052.9830999999999        1826.0000000000000        539.01999999999998
 Qkappa, Qmu =    9999.0000000000000        9999.0000000000000
 Material is solid
 --------
 Material #         263  isotropic
 rho,cp,cs   =    1943.2040999999999        1484.0100000000000        275.68770000000001
 Qkappa, Qmu =    9999.0000000000000        9999.0000000000000
 Material is solid
 --------
 Material #         264  isotropic
 rho,cp,cs   =    1820.4644000000001        1424.0000000000000        288.89600000000002
 Qkappa, Qmu =    9999.0000000000000        9999.0000000000000
 Material is solid
 --------
 Material #         265  isotropic
 rho,cp,cs   =    1939.7220000000000        1474.0000000000000        267.98000000000002
 Qkappa, Qmu =    9999.0000000000000        9999.0000000000000
 Material is solid
 --------
 Material #         266  isotropic
 rho,cp,cs   =    1983.6614000000000        1604.0100000000000        368.08769999999998
 Qkappa, Qmu =    9999.0000000000000        9999.0000000000000
 Material is solid
 --------
 Material #         267  isotropic
 rho,cp,cs   =    1943.2007000000001        1484.0000000000000        275.68000000000001
 Qkappa, Qmu =    9999.0000000000000        9999.0000000000000
 Material is solid
 --------
 Material #         268  isotropic
 rho,cp,cs   =    1918.4776999999999        1414.0000000000000        221.78000000000000
 Qkappa, Qmu =    9999.0000000000000        9999.0000000000000
 Material is solid
 --------
 Material #         269  isotropic
 rho,cp,cs   =    1943.2007000000001        1484.0000000000000        275.68000000000001
 Qkappa, Qmu =    9999.0000000000000        9999.0000000000000
 Material is solid
 --------
 Material #         270  isotropic
 rho,cp,cs   =    1960.3398999999999        1534.0000000000000        314.18000000000001
 Qkappa, Qmu =    9999.0000000000000        9999.0000000000000
 Material is solid
 --------
 Material #         271  isotropic
 rho,cp,cs   =    1856.1647000000000        1534.0000000000000        377.33600000000001
 Qkappa, Qmu =    9999.0000000000000        9999.0000000000000
 Material is solid
 --------
 Material #         272  isotropic
 rho,cp,cs   =    1856.1647000000000        1534.0000000000000        377.33600000000001
 Qkappa, Qmu =    9999.0000000000000        9999.0000000000000
 Material is solid
 --------
 Material #         273  isotropic
 rho,cp,cs   =    1840.1801000000000        1484.0000000000000        337.13600000000002
 Qkappa, Qmu =    9999.0000000000000        9999.0000000000000
 Material is solid
 --------
 Material #         274  isotropic
 rho,cp,cs   =    1840.1801000000000        1484.0000000000000        337.13600000000002
 Qkappa, Qmu =    9999.0000000000000        9999.0000000000000
 Material is solid
 --------
 Material #         275  isotropic
 rho,cp,cs   =    1590.0000000000000        1028.0000000000000        607.00000000000000
 Qkappa, Qmu =    9999.0000000000000        9999.0000000000000
 Material is solid
 --------
 Material #         276  isotropic
 rho,cp,cs   =    1840.1768999999999        1483.9900000000000        337.12799999999999
 Qkappa, Qmu =    9999.0000000000000        9999.0000000000000
 Material is solid
 --------
 Material #         277  isotropic
 rho,cp,cs   =    1918.4776999999999        1414.0000000000000        221.78000000000000
 Qkappa, Qmu =    9999.0000000000000        9999.0000000000000
 Material is solid
 --------
 Material #         278  isotropic
 rho,cp,cs   =    1932.7123999999999        1454.0000000000000        252.58000000000001
 Qkappa, Qmu =    9999.0000000000000        9999.0000000000000
 Material is solid
 --------
 Material #         279  isotropic
 rho,cp,cs   =    1862.4508000000001        1554.0000000000000        393.41600000000000
 Qkappa, Qmu =    9999.0000000000000        9999.0000000000000
 Material is solid
 --------
 Material #         280  isotropic
 rho,cp,cs   =    1862.4508000000001        1554.0000000000000        393.41600000000000
 Qkappa, Qmu =    9999.0000000000000        9999.0000000000000
 Material is solid
 --------
 Material #         281  isotropic
 rho,cp,cs   =    1850.0000000000000        1640.0000000000000        652.00000000000000
 Qkappa, Qmu =    9999.0000000000000        9999.0000000000000
 Material is solid
 --------
 Material #         282  isotropic
 rho,cp,cs   =    1820.4644000000001        1424.0000000000000        288.89600000000002
 Qkappa, Qmu =    9999.0000000000000        9999.0000000000000
 Material is solid
 --------
 Material #         283  isotropic
 rho,cp,cs   =    1820.4644000000001        1424.0000000000000        288.89600000000002
 Qkappa, Qmu =    9999.0000000000000        9999.0000000000000
 Material is solid
 --------
 Material #         284  isotropic
 rho,cp,cs   =    1820.4644000000001        1424.0000000000000        288.89600000000002
 Qkappa, Qmu =    9999.0000000000000        9999.0000000000000
 Material is solid
 --------
 Material #         285  isotropic
 rho,cp,cs   =    2171.8226000000000        2800.0000000000000        1395.2000000000000
 Qkappa, Qmu =    9999.0000000000000        9999.0000000000000
 Material is solid
 --------
 Material #         286  isotropic
 rho,cp,cs   =    2171.8226000000000        2800.0000000000000        1395.2000000000000
 Qkappa, Qmu =    9999.0000000000000        9999.0000000000000
 Material is solid
 --------
 Material #         287  isotropic
 rho,cp,cs   =    2058.9180999999999        1846.0000000000000        554.41999999999996
 Qkappa, Qmu =    9999.0000000000000        9999.0000000000000
 Material is solid
 --------
 Material #         288  isotropic
 rho,cp,cs   =    1815.4398000000001        1409.0000000000000        276.83600000000001
 Qkappa, Qmu =    9999.0000000000000        9999.0000000000000
 Material is solid
 --------
 Material #         289  isotropic
 rho,cp,cs   =    1894.5061000000001        1659.0000000000000        477.83600000000001
 Qkappa, Qmu =    9999.0000000000000        9999.0000000000000
 Material is solid
 --------
 Material #         290  isotropic
 rho,cp,cs   =    2207.2100000000000        2400.0000000000000        981.00000000000000
 Qkappa, Qmu =    9999.0000000000000        9999.0000000000000
 Material is solid
 --------
 Material #         291  isotropic
 rho,cp,cs   =    2207.2100000000000        2400.0000000000000        981.00000000000000
 Qkappa, Qmu =    9999.0000000000000        9999.0000000000000
 Material is solid
 --------
 Material #         292  isotropic
 rho,cp,cs   =    2207.2100000000000        2400.0000000000000        981.00000000000000
 Qkappa, Qmu =    9999.0000000000000        9999.0000000000000
 Material is solid
 --------
 Material #         293  isotropic
 rho,cp,cs   =    2207.2100000000000        2400.0000000000000        981.00000000000000
 Qkappa, Qmu =    9999.0000000000000        9999.0000000000000
 Material is solid
 --------
 Material #         294  isotropic
 rho,cp,cs   =    2207.2100000000000        2400.0000000000000        981.00000000000000
 Qkappa, Qmu =    9999.0000000000000        9999.0000000000000
 Material is solid
 --------
 Material #         295  isotropic
 rho,cp,cs   =    2207.2100000000000        2400.0000000000000        981.00000000000000
 Qkappa, Qmu =    9999.0000000000000        9999.0000000000000
 Material is solid
 --------
 Material #         296  isotropic
 rho,cp,cs   =    2207.2100000000000        2400.0000000000000        981.00000000000000
 Qkappa, Qmu =    9999.0000000000000        9999.0000000000000
 Material is solid
 --------
 Material #         297  isotropic
 rho,cp,cs   =    1916.6777000000000        1409.0000000000000        217.93000000000001
 Qkappa, Qmu =    9999.0000000000000        9999.0000000000000
 Material is solid
 --------
 Material #         298  isotropic
 rho,cp,cs   =    1937.7937999999999        1809.0000000000000        598.43600000000004
 Qkappa, Qmu =    9999.0000000000000        9999.0000000000000
 Material is solid
 --------
 Material #         299  isotropic
 rho,cp,cs   =    1985.2949000000001        1609.0000000000000        371.93000000000001
 Qkappa, Qmu =    9999.0000000000000        9999.0000000000000
 Material is solid
 --------
 Material #         300  isotropic
 rho,cp,cs   =    2240.0000000000000        3200.0000000000000        1616.0000000000000
 Qkappa, Qmu =    9999.0000000000000        9999.0000000000000
 Material is solid
 --------
 Material #         301  isotropic
 rho,cp,cs   =    2340.0000000000000        3800.0000000000000        2053.0000000000000
 Qkappa, Qmu =    9999.0000000000000        9999.0000000000000
 Material is solid
 --------
 Material #         302  isotropic
 rho,cp,cs   =    2300.0000000000000        3550.0000000000000        1873.0000000000000
 Qkappa, Qmu =    9999.0000000000000        9999.0000000000000
 Material is solid
 --------
 Material #         303  isotropic
 rho,cp,cs   =    2250.0000000000000        3300.0000000000000        1690.0000000000000
 Qkappa, Qmu =    9999.0000000000000        9999.0000000000000
 Material is solid
 --------
 Material #         304  isotropic
 rho,cp,cs   =    2310.0000000000000        3600.0000000000000        1909.0000000000000
 Qkappa, Qmu =    9999.0000000000000        9999.0000000000000
 Material is solid
 --------
 Material #         305  isotropic
 rho,cp,cs   =    2310.0000000000000        3650.0000000000000        1945.0000000000000
 Qkappa, Qmu =    9999.0000000000000        9999.0000000000000
 Material is solid
 --------
 Material #         306  isotropic
 rho,cp,cs   =    2290.0000000000000        3500.0000000000000        1836.0000000000000
 Qkappa, Qmu =    9999.0000000000000        9999.0000000000000
 Material is solid
 --------
 Material #         307  isotropic
 rho,cp,cs   =    2140.0000000000000        4500.0000000000000        2600.0000000000000
 Qkappa, Qmu =    9999.0000000000000        9999.0000000000000
 Material is solid
 --------
 Material #         308  isotropic
 rho,cp,cs   =    2140.0000000000000        4500.0000000000000        2600.0000000000000
 Qkappa, Qmu =    9999.0000000000000        9999.0000000000000
 Material is solid
 --------
 Material #         309  isotropic
 rho,cp,cs   =    2401.5623000000001        3300.0000000000000        1674.0000000000000
 Qkappa, Qmu =    9999.0000000000000        9999.0000000000000
 Material is solid
 --------
 Material #         310  isotropic
 rho,cp,cs   =    2433.7444999999998        3470.0000000000000        1804.9000000000001
 Qkappa, Qmu =    9999.0000000000000        9999.0000000000000
 Material is solid
 --------
 Material #         311  isotropic
 rho,cp,cs   =    2315.6853999999998        3580.0000000000000        2022.3199999999999
 Qkappa, Qmu =    9999.0000000000000        9999.0000000000000
 Material is solid
 --------
 Material #         312  isotropic
 rho,cp,cs   =    2633.0349999999999        4670.0000000000000        2728.9000000000001
 Qkappa, Qmu =    9999.0000000000000        9999.0000000000000
 Material is solid
 --------
 Material #         313  isotropic
 rho,cp,cs   =    2616.4555000000000        4560.0000000000000        2644.1999999999998
 Qkappa, Qmu =    9999.0000000000000        9999.0000000000000
 Material is solid
 --------
 Material #         314  isotropic
 rho,cp,cs   =    2418.7496999999998        4230.0000000000000        2544.9200000000001
 Qkappa, Qmu =    9999.0000000000000        9999.0000000000000
 Material is solid
 --------
 Material #         315  isotropic
 rho,cp,cs   =    2416.8550000000000        3380.0000000000000        1735.5999999999999
 Qkappa, Qmu =    9999.0000000000000        9999.0000000000000
 Material is solid
 --------
 Material #         316  isotropic
 rho,cp,cs   =    2446.6595000000002        3540.0000000000000        1858.8000000000000
 Qkappa, Qmu =    9999.0000000000000        9999.0000000000000
 Material is solid
 --------
 Material #         317  isotropic
 rho,cp,cs   =    2493.0462000000002        3800.0000000000000        2059.0000000000000
 Qkappa, Qmu =    9999.0000000000000        9999.0000000000000
 Material is solid
 --------
 Material #         318  isotropic
 rho,cp,cs   =    2510.2662999999998        3900.0000000000000        2136.0000000000000
 Qkappa, Qmu =    9999.0000000000000        9999.0000000000000
 Material is solid
 --------
 Material #         319  isotropic
 rho,cp,cs   =    2366.1302000000001        3120.0000000000000        1535.4000000000001
 Qkappa, Qmu =    9999.0000000000000        9999.0000000000000
 Material is solid
 --------
 Material #         320  isotropic
 rho,cp,cs   =    2430.0192999999999        3450.0000000000000        1789.5000000000000
 Qkappa, Qmu =    9999.0000000000000        9999.0000000000000
 Material is solid
 --------
 Material #         321  isotropic
 rho,cp,cs   =    2416.8550000000000        3380.0000000000000        1735.5999999999999
 Qkappa, Qmu =    9999.0000000000000        9999.0000000000000
 Material is solid
 --------
 Material #         322  isotropic
 rho,cp,cs   =    2446.6595000000002        3540.0000000000000        1858.8000000000000
 Qkappa, Qmu =    9999.0000000000000        9999.0000000000000
 Material is solid
 --------
 Material #         323  isotropic
 rho,cp,cs   =    2493.0462000000002        3800.0000000000000        2059.0000000000000
 Qkappa, Qmu =    9999.0000000000000        9999.0000000000000
 Material is solid
 --------
 Material #         324  isotropic
 rho,cp,cs   =    2510.2662999999998        3900.0000000000000        2136.0000000000000
 Qkappa, Qmu =    9999.0000000000000        9999.0000000000000
 Material is solid
 --------
 Material #         325  isotropic
 rho,cp,cs   =    2366.1302000000001        3120.0000000000000        1535.4000000000001
 Qkappa, Qmu =    9999.0000000000000        9999.0000000000000
 Material is solid
 --------
 Material #         326  isotropic
 rho,cp,cs   =    2430.0192999999999        3450.0000000000000        1789.5000000000000
 Qkappa, Qmu =    9999.0000000000000        9999.0000000000000
 Material is solid
 --------
 Material #         327  isotropic
 rho,cp,cs   =    2484.3108999999999        3750.0000000000000        2020.5000000000000
 Qkappa, Qmu =    9999.0000000000000        9999.0000000000000
 Material is solid
 --------
 Material #         328  isotropic
 rho,cp,cs   =    2382.0583999999999        3200.0000000000000        1597.0000000000000
 Qkappa, Qmu =    9999.0000000000000        9999.0000000000000
 Material is solid
 --------
 Material #         329  isotropic
 rho,cp,cs   =    2416.8550000000000        3380.0000000000000        1735.5999999999999
 Qkappa, Qmu =    9999.0000000000000        9999.0000000000000
 Material is solid
 --------
 Material #         330  isotropic
 rho,cp,cs   =    2439.3027000000002        3500.0000000000000        1828.0000000000000
 Qkappa, Qmu =    9999.0000000000000        9999.0000000000000
 Material is solid
 --------
 Material #         331  isotropic
 rho,cp,cs   =    2614.9337000000000        4550.0000000000000        2636.5000000000000
 Qkappa, Qmu =    9999.0000000000000        9999.0000000000000
 Material is solid
 --------
 Material #         332  isotropic
 rho,cp,cs   =    2598.0300000000002        4440.0000000000000        2551.8000000000002
 Qkappa, Qmu =    9999.0000000000000        9999.0000000000000
 Material is solid
 --------
 Material #         333  isotropic
 rho,cp,cs   =    2401.5623000000001        3300.0000000000000        1674.0000000000000
 Qkappa, Qmu =    9999.0000000000000        9999.0000000000000
 Material is solid
 --------
 Material #         334  isotropic
 rho,cp,cs   =    2484.3108999999999        3750.0000000000000        2020.5000000000000
 Qkappa, Qmu =    9999.0000000000000        9999.0000000000000
 Material is solid
 --------
 Material #         335  isotropic
 rho,cp,cs   =    2484.3108999999999        3750.0000000000000        2020.5000000000000
 Qkappa, Qmu =    9999.0000000000000        9999.0000000000000
 Material is solid
 --------
 Material #         336  isotropic
 rho,cp,cs   =    2576.0648999999999        4300.0000000000000        2444.0000000000000
 Qkappa, Qmu =    9999.0000000000000        9999.0000000000000
 Material is solid
 --------
 Material #         337  isotropic
 rho,cp,cs   =    2401.5623000000001        3300.0000000000000        1674.0000000000000
 Qkappa, Qmu =    9999.0000000000000        9999.0000000000000
 Material is solid
 --------
 Material #         338  isotropic
 rho,cp,cs   =    2448.4890999999998        3550.0000000000000        1866.5000000000000
 Qkappa, Qmu =    9999.0000000000000        9999.0000000000000
 Material is solid
 --------
 Material #         339  isotropic
 rho,cp,cs   =    2391.8654999999999        3250.0000000000000        1635.5000000000000
 Qkappa, Qmu =    9999.0000000000000        9999.0000000000000
 Material is solid
 --------
 Material #         340  isotropic
 rho,cp,cs   =    2510.2662999999998        3900.0000000000000        2136.0000000000000
 Qkappa, Qmu =    9999.0000000000000        9999.0000000000000
 Material is solid
 --------
 Material #         341  isotropic
 rho,cp,cs   =    2475.4897000000001        3700.0000000000000        1982.0000000000000
 Qkappa, Qmu =    9999.0000000000000        9999.0000000000000
 Material is solid
 --------
 Material #         342  isotropic
 rho,cp,cs   =    2598.0300000000002        4440.0000000000000        2551.8000000000002
 Qkappa, Qmu =    9999.0000000000000        9999.0000000000000
 Material is solid
 --------
 Material #         343  isotropic
 rho,cp,cs   =    2465.2278999999999        4550.0000000000000        2802.1999999999998
 Qkappa, Qmu =    9999.0000000000000        9999.0000000000000
 Material is solid
 --------
 Material #         344  isotropic
 rho,cp,cs   =    2446.6595000000002        3540.0000000000000        1858.8000000000000
 Qkappa, Qmu =    9999.0000000000000        9999.0000000000000
 Material is solid
 --------
 Material #         345  isotropic
 rho,cp,cs   =    2493.0462000000002        3800.0000000000000        2059.0000000000000
 Qkappa, Qmu =    9999.0000000000000        9999.0000000000000
 Material is solid
 --------
 Material #         346  isotropic
 rho,cp,cs   =    2430.0192999999999        3450.0000000000000        1789.5000000000000
 Qkappa, Qmu =    9999.0000000000000        9999.0000000000000
 Material is solid
 --------
 Material #         347  isotropic
 rho,cp,cs   =    2366.1302000000001        3120.0000000000000        1535.4000000000001
 Qkappa, Qmu =    9999.0000000000000        9999.0000000000000
 Material is solid
 --------
 Material #         348  isotropic
 rho,cp,cs   =    2416.8550000000000        3380.0000000000000        1735.5999999999999
 Qkappa, Qmu =    9999.0000000000000        9999.0000000000000
 Material is solid
 --------
 Material #         349  isotropic
 rho,cp,cs   =    2439.3027000000002        3500.0000000000000        1828.0000000000000
 Qkappa, Qmu =    9999.0000000000000        9999.0000000000000
 Material is solid
 --------
 Material #         350  isotropic
 rho,cp,cs   =    2382.0583999999999        3200.0000000000000        1597.0000000000000
 Qkappa, Qmu =    9999.0000000000000        9999.0000000000000
 Material is solid
 --------
 Material #         351  isotropic
 rho,cp,cs   =    2411.1516999999999        3350.0000000000000        1712.5000000000000
 Qkappa, Qmu =    9999.0000000000000        9999.0000000000000
 Material is solid
 --------
 Material #         352  isotropic
 rho,cp,cs   =    2446.6595000000002        3540.0000000000000        1858.8000000000000
 Qkappa, Qmu =    9999.0000000000000        9999.0000000000000
 Material is solid
 --------
 Material #         353  isotropic
 rho,cp,cs   =    2576.0648999999999        4300.0000000000000        2444.0000000000000
 Qkappa, Qmu =    9999.0000000000000        9999.0000000000000
 Material is solid
 --------
 Material #         354  isotropic
 rho,cp,cs   =    2560.0517000000000        4200.0000000000000        2367.0000000000000
 Qkappa, Qmu =    9999.0000000000000        9999.0000000000000
 Material is solid
 --------
 Material #         355  isotropic
 rho,cp,cs   =    2448.4890999999998        3550.0000000000000        1866.5000000000000
 Qkappa, Qmu =    9999.0000000000000        9999.0000000000000
 Material is solid
 --------
 Material #         356  isotropic
 rho,cp,cs   =    2547.0380000000000        4120.0000000000000        2305.4000000000001
 Qkappa, Qmu =    9999.0000000000000        9999.0000000000000
 Material is solid
 --------
 Material #         357  isotropic
 rho,cp,cs   =    2439.3027000000002        3500.0000000000000        1828.0000000000000
 Qkappa, Qmu =    9999.0000000000000        9999.0000000000000
 Material is solid
 --------
 Material #         358  isotropic
 rho,cp,cs   =    2510.2662999999998        3900.0000000000000        2136.0000000000000
 Qkappa, Qmu =    9999.0000000000000        9999.0000000000000
 Material is solid
 --------
 Material #         359  isotropic
 rho,cp,cs   =    2484.3108999999999        3750.0000000000000        2020.5000000000000
 Qkappa, Qmu =    9999.0000000000000        9999.0000000000000
 Material is solid
 --------
 Material #         360  isotropic
 rho,cp,cs   =    2616.4555000000000        4560.0000000000000        2644.1999999999998
 Qkappa, Qmu =    9999.0000000000000        9999.0000000000000
 Material is solid
 --------
 Material #         361  isotropic
 rho,cp,cs   =    2430.0192999999999        3450.0000000000000        1789.5000000000000
 Qkappa, Qmu =    9999.0000000000000        9999.0000000000000
 Material is solid
 --------
 Material #         362  isotropic
 rho,cp,cs   =    2484.3108999999999        3750.0000000000000        2020.5000000000000
 Qkappa, Qmu =    9999.0000000000000        9999.0000000000000
 Material is solid
 --------
 Material #         363  isotropic
 rho,cp,cs   =    2475.4897000000001        3700.0000000000000        1982.0000000000000
 Qkappa, Qmu =    9999.0000000000000        9999.0000000000000
 Material is solid
 --------
 Material #         364  isotropic
 rho,cp,cs   =    2457.5808999999999        3600.0000000000000        1905.0000000000000
 Qkappa, Qmu =    9999.0000000000000        9999.0000000000000
 Material is solid
 --------
 Material #         365  isotropic
 rho,cp,cs   =    2547.0380000000000        4120.0000000000000        2305.4000000000001
 Qkappa, Qmu =    9999.0000000000000        9999.0000000000000
 Material is solid
 --------
 Material #         366  isotropic
 rho,cp,cs   =    2598.0300000000002        4440.0000000000000        2551.8000000000002
 Qkappa, Qmu =    9999.0000000000000        9999.0000000000000
 Material is solid
 --------
 Material #         367  isotropic
 rho,cp,cs   =    2614.9337000000000        4550.0000000000000        2636.5000000000000
[...]
 Estimated total run time in seconds =    1036.5735292434692
 Estimated total run time in hh:mm:ss =      0 h 17 m 16 s
 The run will finish approximately on: Thu Feb 15, 2024 17:48

 Creating color image of size         1302  x          282  for time step        68000
 drawing scalar image of the forward wavefield displacement...
 Color image maximum amplitude =    2.0947010133769634E-012
 Color image created


 ******************************************************************
 Time step #   70000 out of  100000
 ******************************************************************
 Time:    0.2900 s
 We have done    69.9997025     % of the total
 Max norm of vector field in solid (elastic) =    7.71303052E-13
 Max absolute value of scalar field in fluid (acoustic) =    2.28816095E-08
 Elapsed time in seconds =    725.56099987030029
 Elapsed time in hh:mm:ss =      0 h 12 m 05 s
 Mean elapsed time per time step in seconds =    1.0365157141004290E-002
 Time steps remaining =        30000
 Estimated remaining time in seconds =    310.95471423012867
 Estimated remaining time in hh:mm:ss =      0 h 05 m 10 s
 Estimated total run time in seconds =    1036.5157141004290
 Estimated total run time in hh:mm:ss =      0 h 17 m 16 s
 The run will finish approximately on: Thu Feb 15, 2024 17:48

 Creating color image of size         1302  x          282  for time step        70000
 drawing scalar image of the forward wavefield displacement...
 Color image maximum amplitude =    2.0934092622532466E-012
 Color image created


 ******************************************************************
 Time step #   72000 out of  100000
 ******************************************************************
 Time:    0.3000 s
 We have done    71.9997177     % of the total
 Max norm of vector field in solid (elastic) =    7.66617564E-13
 Max absolute value of scalar field in fluid (acoustic) =    2.25901751E-08
 Elapsed time in seconds =    746.24000000953674
 Elapsed time in hh:mm:ss =      0 h 12 m 26 s
 Mean elapsed time per time step in seconds =    1.0364444444576900E-002
 Time steps remaining =        28000
 Estimated remaining time in seconds =    290.20444444815320
 Estimated remaining time in hh:mm:ss =      0 h 04 m 50 s
 Estimated total run time in seconds =    1036.4444444576900
 Estimated total run time in hh:mm:ss =      0 h 17 m 16 s
 The run will finish approximately on: Thu Feb 15, 2024 17:48

 Creating color image of size         1302  x          282  for time step        72000
 drawing scalar image of the forward wavefield displacement...
 Color image maximum amplitude =    2.0537549776721474E-012
 Color image created


 ******************************************************************
 Time step #   74000 out of  100000
 ******************************************************************
 Time:    0.3100 s
 We have done    73.9997406     % of the total
 Max norm of vector field in solid (elastic) =    7.64406279E-13
 Max absolute value of scalar field in fluid (acoustic) =    2.22232224E-08
 Elapsed time in seconds =    766.91699981689453
 Elapsed time in hh:mm:ss =      0 h 12 m 46 s
 Mean elapsed time per time step in seconds =    1.0363743240768846E-002
 Time steps remaining =        26000
 Estimated remaining time in seconds =    269.45732425999000
 Estimated remaining time in hh:mm:ss =      0 h 04 m 29 s
 Estimated total run time in seconds =    1036.3743240768845
 Estimated total run time in hh:mm:ss =      0 h 17 m 16 s
 The run will finish approximately on: Thu Feb 15, 2024 17:48

 Creating color image of size         1302  x          282  for time step        74000
 drawing scalar image of the forward wavefield displacement...
 Color image maximum amplitude =    2.0170603849395045E-012
 Color image created


 ******************************************************************
 Time step #   76000 out of  100000
 ******************************************************************
 Time:    0.3200 s
 We have done    75.9997635     % of the total
 Max norm of vector field in solid (elastic) =    7.62195645E-13
 Max absolute value of scalar field in fluid (acoustic) =    2.18574350E-08
 Elapsed time in seconds =    787.59799981117249
 Elapsed time in hh:mm:ss =      0 h 13 m 07 s
 Mean elapsed time per time step in seconds =    1.0363131576462795E-002
 Time steps remaining =        24000
 Estimated remaining time in seconds =    248.71515783510708
 Estimated remaining time in hh:mm:ss =      0 h 04 m 08 s
 Estimated total run time in seconds =    1036.3131576462795
 Estimated total run time in hh:mm:ss =      0 h 17 m 16 s
 The run will finish approximately on: Thu Feb 15, 2024 17:48

 Creating color image of size         1302  x          282  for time step        76000
 drawing scalar image of the forward wavefield displacement...
 Color image maximum amplitude =    1.9698860566839957E-012
 Color image created


 ******************************************************************
 Time step #   78000 out of  100000
 ******************************************************************
 Time:    0.3300 s
 We have done    77.9997787     % of the total
 Max norm of vector field in solid (elastic) =    7.61532764E-13
 Max absolute value of scalar field in fluid (acoustic) =    2.15008704E-08
 Elapsed time in seconds =    808.26600003242493
 Elapsed time in hh:mm:ss =      0 h 13 m 28 s
 Mean elapsed time per time step in seconds =    1.0362384615800319E-002
 Time steps remaining =        22000
 Estimated remaining time in seconds =    227.97246154760703
 Estimated remaining time in hh:mm:ss =      0 h 03 m 47 s
 Estimated total run time in seconds =    1036.2384615800320
 Estimated total run time in hh:mm:ss =      0 h 17 m 16 s
 The run will finish approximately on: Thu Feb 15, 2024 17:48

 Creating color image of size         1302  x          282  for time step        78000
 drawing scalar image of the forward wavefield displacement...
 Color image maximum amplitude =    1.9259888194523715E-012
 Color image created


 ******************************************************************
 Time step #   80000 out of  100000
 ******************************************************************
 Time:    0.3400 s
 We have done    79.9998016     % of the total
 Max norm of vector field in solid (elastic) =    7.55454239E-13
 Max absolute value of scalar field in fluid (acoustic) =    2.12219025E-08
 Elapsed time in seconds =    829.03999996185303
 Elapsed time in hh:mm:ss =      0 h 13 m 49 s
 Mean elapsed time per time step in seconds =    1.0362999999523163E-002
 Time steps remaining =        20000
 Estimated remaining time in seconds =    207.25999999046326
 Estimated remaining time in hh:mm:ss =      0 h 03 m 27 s
 Estimated total run time in seconds =    1036.2999999523163
 Estimated total run time in hh:mm:ss =      0 h 17 m 16 s
 The run will finish approximately on: Thu Feb 15, 2024 17:48

 Creating color image of size         1302  x          282  for time step        80000
 drawing scalar image of the forward wavefield displacement...
 Color image maximum amplitude =    1.9036972734563797E-012
 Color image created


 ******************************************************************
 Time step #   82000 out of  100000
 ******************************************************************
 Time:    0.3500 s
 We have done    81.9998169     % of the total
 Max norm of vector field in solid (elastic) =    7.39328087E-13
 Max absolute value of scalar field in fluid (acoustic) =    2.09155928E-08
 Elapsed time in seconds =    850.03399991989136
 Elapsed time in hh:mm:ss =      0 h 14 m 10 s
 Mean elapsed time per time step in seconds =    1.0366268291705992E-002
 Time steps remaining =        18000
 Estimated remaining time in seconds =    186.59282925070787
 Estimated remaining time in hh:mm:ss =      0 h 03 m 06 s
 Estimated total run time in seconds =    1036.6268291705992
 Estimated total run time in hh:mm:ss =      0 h 17 m 16 s
 The run will finish approximately on: Thu Feb 15, 2024 17:48

 Creating color image of size         1302  x          282  for time step        82000
 drawing scalar image of the forward wavefield displacement...
 Color image maximum amplitude =    1.8531607564711626E-012
 Color image created


 ******************************************************************
 Time step #   84000 out of  100000
 ******************************************************************
 Time:    0.3600 s
 We have done    83.9998398     % of the total
 Max norm of vector field in solid (elastic) =    7.40631189E-13
 Max absolute value of scalar field in fluid (acoustic) =    2.06566995E-08
 Elapsed time in seconds =    871.03099989891052
 Elapsed time in hh:mm:ss =      0 h 14 m 31 s
 Mean elapsed time per time step in seconds =    1.0369416665463220E-002
 Time steps remaining =        16000
 Estimated remaining time in seconds =    165.91066664741152
 Estimated remaining time in hh:mm:ss =      0 h 02 m 45 s
 Estimated total run time in seconds =    1036.9416665463220
 Estimated total run time in hh:mm:ss =      0 h 17 m 16 s
 The run will finish approximately on: Thu Feb 15, 2024 17:48

 Creating color image of size         1302  x          282  for time step        84000
 drawing scalar image of the forward wavefield displacement...
 Color image maximum amplitude =    1.8742885361262845E-012
 Color image created


 ******************************************************************
 Time step #   86000 out of  100000
 ******************************************************************
 Time:    0.3700 s
 We have done    85.9998627     % of the total
 Max norm of vector field in solid (elastic) =    7.34737791E-13
 Max absolute value of scalar field in fluid (acoustic) =    2.03608863E-08
 Elapsed time in seconds =    892.02600002288818
 Elapsed time in hh:mm:ss =      0 h 14 m 52 s
 Mean elapsed time per time step in seconds =    1.0372395349103352E-002
 Time steps remaining =        14000
 Estimated remaining time in seconds =    145.21353488744691
 Estimated remaining time in hh:mm:ss =      0 h 02 m 25 s
 Estimated total run time in seconds =    1037.2395349103351
 Estimated total run time in hh:mm:ss =      0 h 17 m 17 s
 The run will finish approximately on: Thu Feb 15, 2024 17:48

 Creating color image of size         1302  x          282  for time step        86000
 drawing scalar image of the forward wavefield displacement...
 Color image maximum amplitude =    1.7956829173912304E-012
 Color image created


 ******************************************************************
 Time step #   88000 out of  100000
 ******************************************************************
 Time:    0.3800 s
 We have done    87.9998779     % of the total
 Max norm of vector field in solid (elastic) =    7.25866524E-13
 Max absolute value of scalar field in fluid (acoustic) =    2.00546886E-08
 Elapsed time in seconds =    913.01499986648560
 Elapsed time in hh:mm:ss =      0 h 15 m 13 s
 Mean elapsed time per time step in seconds =    1.0375170453028245E-002
 Time steps remaining =        12000
 Estimated remaining time in seconds =    124.50204543633893
 Estimated remaining time in hh:mm:ss =      0 h 02 m 04 s
 Estimated total run time in seconds =    1037.5170453028245
 Estimated total run time in hh:mm:ss =      0 h 17 m 17 s
 The run will finish approximately on: Thu Feb 15, 2024 17:48

 Creating color image of size         1302  x          282  for time step        88000
 drawing scalar image of the forward wavefield displacement...
 Color image maximum amplitude =    1.7764053477785411E-012
 Color image created


 ******************************************************************
 Time step #   90000 out of  100000
 ******************************************************************
 Time:    0.3900 s
 We have done    89.9999008     % of the total
 Max norm of vector field in solid (elastic) =    7.45574013E-13
 Max absolute value of scalar field in fluid (acoustic) =    1.98257624E-08
 Elapsed time in seconds =    934.01699995994568
 Elapsed time in hh:mm:ss =      0 h 15 m 34 s
 Mean elapsed time per time step in seconds =    1.0377966666221618E-002
 Time steps remaining =        10000
 Estimated remaining time in seconds =    103.77966666221619
 Estimated remaining time in hh:mm:ss =      0 h 01 m 43 s
 Estimated total run time in seconds =    1037.7966666221619
 Estimated total run time in hh:mm:ss =      0 h 17 m 17 s
 The run will finish approximately on: Thu Feb 15, 2024 17:48

 Creating color image of size         1302  x          282  for time step        90000
 drawing scalar image of the forward wavefield displacement...
 Color image maximum amplitude =    1.7804810257596516E-012
 Color image created


 ******************************************************************
 Time step #   92000 out of  100000
 ******************************************************************
 Time:    0.4000 s
 We have done    91.9999237     % of the total
 Max norm of vector field in solid (elastic) =    7.78487734E-13
 Max absolute value of scalar field in fluid (acoustic) =    1.95180583E-08
 Elapsed time in seconds =    955.04199981689453
 Elapsed time in hh:mm:ss =      0 h 15 m 55 s
 Mean elapsed time per time step in seconds =    1.0380891302357548E-002
 Time steps remaining =         8000
 Estimated remaining time in seconds =    83.047130418860391
 Estimated remaining time in hh:mm:ss =      0 h 01 m 23 s
 Estimated total run time in seconds =    1038.0891302357550
 Estimated total run time in hh:mm:ss =      0 h 17 m 18 s
 The run will finish approximately on: Thu Feb 15, 2024 17:48

 Creating color image of size         1302  x          282  for time step        92000
 drawing scalar image of the forward wavefield displacement...
 Color image maximum amplitude =    1.7426781161647659E-012
 Color image created


 ******************************************************************
 Time step #   94000 out of  100000
 ******************************************************************
 Time:    0.4100 s
 We have done    93.9999390     % of the total
 Max norm of vector field in solid (elastic) =    7.99806510E-13
 Max absolute value of scalar field in fluid (acoustic) =    1.93541805E-08
 Elapsed time in seconds =    976.06399989128113
 Elapsed time in hh:mm:ss =      0 h 16 m 16 s
 Mean elapsed time per time step in seconds =    1.0383659573311501E-002
 Time steps remaining =         6000
 Estimated remaining time in seconds =    62.301957439869007
 Estimated remaining time in hh:mm:ss =      0 h 01 m 02 s
 Estimated total run time in seconds =    1038.3659573311502
 Estimated total run time in hh:mm:ss =      0 h 17 m 18 s
 The run will finish approximately on: Thu Feb 15, 2024 17:48

 Creating color image of size         1302  x          282  for time step        94000
 drawing scalar image of the forward wavefield displacement...
 Color image maximum amplitude =    1.7105986185225474E-012
 Color image created


 ******************************************************************
 Time step #   96000 out of  100000
 ******************************************************************
 Time:    0.4200 s
 We have done    95.9999619     % of the total
 Max norm of vector field in solid (elastic) =    7.95488350E-13
 Max absolute value of scalar field in fluid (acoustic) =    1.91345411E-08
 Elapsed time in seconds =    997.08399987220764
 Elapsed time in hh:mm:ss =      0 h 16 m 37 s
 Mean elapsed time per time step in seconds =    1.0386291665335496E-002
 Time steps remaining =         4000
 Estimated remaining time in seconds =    41.545166661341980
 Estimated remaining time in hh:mm:ss =      0 h 00 m 41 s
 Estimated total run time in seconds =    1038.6291665335496
 Estimated total run time in hh:mm:ss =      0 h 17 m 18 s
 The run will finish approximately on: Thu Feb 15, 2024 17:48

 Creating color image of size         1302  x          282  for time step        96000
 drawing scalar image of the forward wavefield displacement...
 Color image maximum amplitude =    1.6977016953791913E-012
 Color image created


 ******************************************************************
 Time step #   98000 out of  100000
 ******************************************************************
 Time:    0.4300 s
 We have done    97.9999771     % of the total
 Max norm of vector field in solid (elastic) =    7.64785858E-13
 Max absolute value of scalar field in fluid (acoustic) =    1.88797156E-08
 Elapsed time in seconds =    1018.1089999675751
 Elapsed time in hh:mm:ss =      0 h 16 m 58 s
 Mean elapsed time per time step in seconds =    1.0388867346607909E-002
 Time steps remaining =         2000
 Estimated remaining time in seconds =    20.777734693215816
 Estimated remaining time in hh:mm:ss =      0 h 00 m 20 s
 Estimated total run time in seconds =    1038.8867346607908
 Estimated total run time in hh:mm:ss =      0 h 17 m 18 s
 The run will finish approximately on: Thu Feb 15, 2024 17:48

 Creating color image of size         1302  x          282  for time step        98000
 drawing scalar image of the forward wavefield displacement...
 Color image maximum amplitude =    1.7253289614223603E-012
 Color image created


 ******************************************************************
 Time step #  100000 out of  100000
 ******************************************************************
 Time:    0.4400 s
 We have done    100.000000     % of the total
 Max norm of vector field in solid (elastic) =    7.21423138E-13
 Max absolute value of scalar field in fluid (acoustic) =    1.86851175E-08
 Elapsed time in seconds =    1039.1419999599457
 Elapsed time in hh:mm:ss =      0 h 17 m 19 s
 Mean elapsed time per time step in seconds =    1.0391419999599456E-002
 Time steps remaining =            0
 Estimated remaining time in seconds =    0.0000000000000000
 Estimated remaining time in hh:mm:ss =      0 h 00 m 00 s
 Estimated total run time in seconds =    1039.1419999599457
 Estimated total run time in hh:mm:ss =      0 h 17 m 19 s


 Total number of time steps done:       100000
 Writing the seismograms by main proc alone took   0.165289000      seconds

 Creating color image of size         1302  x          282  for time step       100000
 drawing scalar image of the forward wavefield displacement...
 Color image maximum amplitude =    1.6325331395706099E-012
 Color image created


 Time loop finished. Timing info:
 Total duration of the time loop in seconds  =    1039.32629      s
 Total duration of the time loop in hh:mm:ss =      0 h 17 m 19 s

 Total number of time steps =       100000
 Average duration of a time step of the time loop =    1.03932628E-02  s

 Total number of spectral elements in the mesh =       103944
     of which       103944  are regular elements
     and            0  are PML elements.
 Average duration of the calculation per spectral element =    5.75974582E-07  s


 Total duration of the timeloop measured using date and time of the system
     in seconds     =    1039.32800      s
     in in hh:mm:ss =      0 h 17 m 19 s



 -------------------------------------------------------------------------------
 -------------------------------------------------------------------------------
 Program SPECFEM2D:
 -------------------------------------------------------------------------------
 -------------------------------------------------------------------------------
 external Marmousi mesh
 -------------------------------------------------------------------------------
 -------------------------------------------------------------------------------
 D a t e : 15 - 02 - 2024                                 T i m e  : 17:47:36
 -------------------------------------------------------------------------------
 -------------------------------------------------------------------------------

see results in directory: OUTPUT_FILES/

done
Thu Feb 15 17:47:36 CET 2024
