running example: Thu Jun 25 22:12:40 CEST 2020

setting up example...


running mesher...


 **********************************************
 *** Specfem 2-D Mesher - MPI version       ***
 **********************************************

 Running Git version of the code corresponding to undefined in the case of old tar ball builds
 dating undefined in the case of old tar ball builds

 Reading the parameter file...

 Title of the simulation: cube elastic


 Receiver lines:
   Nb of line sets =            1

 Materials:
   Nb of solid, fluid or porous materials =            1

 --------
 Material #           1  isotropic
 rho,cp,cs   =    2700.0000000000000        3000.0000000000000        0.0000000000000000
 Qkappa, Qmu =    9999.0000000000000        9999.0000000000000
 Material is fluid
 --------


 Mesh from internal meshing:

 Reading interface data from file: ./DATA/interfaces_elastic_analytic.dat
 Reading            2  points for interface            1
 Reading            2  points for interface            2

 Total number of layers in z direction =            1
 There are           50  spectral elements along Z in layer            1

 Total number of spectral elements along X =           50
 Total number of spectral elements along Z =           50

 Regions:
   Nb of regions in the mesh =            1

 ------
 Region            1
 IX from            1  to           50
 IZ from            1  to           50
 Material #            1  isotropic
 Material is fluid
 vp     =    3000.00000
 vs     =    0.00000000
 rho    =    2700.00000
 Poisson's ratio =   0.500000000
 QKappa =    9999.00000
 Qmu    =    9999.00000
 ------

 Parameter file successfully read


 Mesh from internal meshing:
   Total number of spectral elements         =         2500

 PML mesh elements:
   Total number of PML elements =            0

 The mesh contains         2500  elements

 Control elements have            4  nodes

 Reading in SOURCE file...

 Source           1
   Position xs, zs =    0.0000000000000000        0.0000000000000000

   Source type (1=force, 2=moment tensor, 3=Rayleigh wave, 4=plane incident P, 5=plane incident S):            6
   Initial mode displacement for initialfield

   Time function type (1=Ricker, 2=First derivative, 3=Gaussian, 4=Dirac, 5=Heaviside, 8=Read from file, 9=burst):           1
   Ricker wavelet (second-derivative):
   Frequency, delay =    1.0000000000000000        0.0000000000000000
   Multiplying factor  =    1.0000000000000000

 all sources are okay

 Normals to surface not needed

 Node coordinates:

 reading node coordinates from interfaces...

 Mesh surfaces:
   determining acoustic free surface...
   number of acoustic elements with free surface =          200

   determining absorbing boundary surfaces...
   number of elements with absorbing boundaries =            0


 Mesh dimensions:
   Min and max value of X in the grid =    0.0000000000000000        2000.0000000000000
   Min and max value of Z in the grid =   -2000.0000000000000        0.0000000000000000

 Mesh partitioning:
   decomposing mesh using NPROC =            1

 Graph construction:
   graph adjacency done

 Coupled interfaces:
 nedges_coupled (acoustic/elastic)     =            0
 nedges_coupled (acoustic/poroelastic) =            0
 nedges_coupled (poroelastic/elastic)  =            0

 Local numbering:
   NPROC:            1
   number of elements:         2500

 decompose mesh all done

 Saving databases:
   database file: ./OUTPUT_FILES/Database00000.bin
   slice            0  has number of spectral elements =        2500

   VTK mesh files:
   written file: ./OUTPUT_FILES//mesh_materials.vtk
   written file: ./OUTPUT_FILES//mesh_partition_number.vtk
   done

 creating STATIONS file...

 writing the ./DATA/STATIONS file


 There are            1  receivers

 Target positions (x,z) of the            1  receivers

 Receiver            1  =    1400.0000000000000       -800.00000000000000

 This will be a serial simulation


running solver...


 **********************************************
 **** Specfem 2-D Solver - MPI version     ****
 **********************************************

 Running Git version of the code corresponding to undefined in the case of old tar ball builds
 dating undefined in the case of old tar ball builds

 There are            1  MPI processes
 Processes are numbered from 0 to            0

 There is a total of            1  slices


 NDIM =            2

 NGLLX =            5
 NGLLZ =            5

 using single precision for the calculations

 smallest and largest possible floating-point numbers are:    1.17549435E-38   3.40282347E+38

 Reading the parameter file...

 Title of the simulation: cube elastic


 Parameter file successfully read

 Reading in SOURCE file...

 Source           1
   Position xs, zs =    0.0000000000000000        0.0000000000000000

   Source type (1=force, 2=moment tensor, 3=Rayleigh wave, 4=plane incident P, 5=plane incident S):            6
   Initial mode displacement for initialfield

   Time function type (1=Ricker, 2=First derivative, 3=Gaussian, 4=Dirac, 5=Heaviside, 8=Read from file, 9=burst):           1
   Ricker wavelet (second-derivative):
   Frequency, delay =    1.0000000000000000        0.0000000000000000
   Multiplying factor  =    1.0000000000000000

 all sources are okay



 -------------------------------------------------------------------------------
 -------------------------------------------------------------------------------
 Program SPECFEM2D:
 -------------------------------------------------------------------------------
 -------------------------------------------------------------------------------
 cube elastic
 -------------------------------------------------------------------------------
 -------------------------------------------------------------------------------
 D a t e : 25 - 06 - 2020                                 T i m e  : 22:12:40
 -------------------------------------------------------------------------------
 -------------------------------------------------------------------------------


 C o n t r o l
 =============

     Number of spectral element control nodes. . .(npgeo) =    2601
     Number of space dimensions. . . . . . . . . . (NDIM) =       2


 C o n t r o l
 =============

     Display frequency . . . .(NSTEP_BETWEEN_OUTPUT_INFO) =   1000
     Color display . . . . . . . . . . . . . . . (colors) =      1
      == 0     black and white display
      == 1     color display
     Numbered mesh . . . . . . . . . . . . . . .(numbers) =      0
      == 0     do not number the mesh
      == 1     number the mesh


 C o n t r o l
 =============

     Seismograms recording type . . . . . . .(seismotype) = 1
     Angle for first line of receivers. . . . .(anglerec) =   0.00


 C o n t r o l
 =============

     Read external initial field. . . . . .(initialfield) =      T
     Add Bielak conditions (add_Bielak_conditions_bottom) =      F
     Add Bielak conditions .(add_Bielak_conditions_right) =      F
     Add Bielak conditions . .(add_Bielak_conditions_top) =      F
     Add Bielak conditions. .(add_Bielak_conditions_left) =      F
     Attenuation in solid . . .(ATTENUATION_VISCOELASTIC) =      F
     Attenuation in fluid . . (ATTENUATION_VISCOACOUSTIC) =      F
     Save grid in ASCII file or not . (output_grid_ASCII) =      F
     Save a file with total energy or not.(OUTPUT_ENERGY) =      F


 C o n t r o l
 =============

     Vector display type . . . . . . . . .(imagetype_postscript) =      1
     Percentage of cut for vector plots. . . . . . . .(cutsnaps) =   1.00
     Subsampling of velocity model display. (subsamp_postscript) =      1


 I t e r a t i o n s
 ===================

     Number of time iterations . . . . .(NSTEP) =    5500
     Time step increment. . . . . . . . . .(DT) =   4.000000E-04
     Total simulation duration . . . . . (ttot) =   2.200000E+00


 reading mesh databases...


 -- Spectral Elements --


     Number of spectral elements . . . . . . . . .  (nspec) =   2500
     Number of control nodes per element . . . . . (ngnod) =      4
     Number of points in X-direction . . . . . . . (NGLLX) =      5
     Number of points in Y-direction . . . . . . . (NGLLZ) =      5
     Number of points per element. . . . . . (NGLLX*NGLLZ) =     25
     Number of points for display . . . . . . (pointsdisp) =      6
     Number of element material sets . . . . . . . (numat) =      1
     Number of acoustic forcing elements (nelem_acforcing) =      0
     Number of acoustic free surf (nelem_acoustic_surface) =    200


 M a t e r i a l   s e t s :   2 D  (p o r o) e l a s t i c i t y
 ======================================================

     Number of material sets . . . . . . (numat) =     1


     -------------------------------
     -- Acoustic (fluid) material --
     -------------------------------
     Material set number. . . . . . . . (jmat) =     1
     P-wave velocity. . . . . . . . . . . (cp) = 3.00000000E+03
     Mass density. . . . . . . . . . (density) = 2.70000000E+03
     Bulk modulus Kappa . . . . . . . .(kappa) = 2.43000000E+10
     QKappa_attenuation. . . . . . . .(QKappa) = 9.99900000E+03
     Qmu_attenuation. . . . . . . . . . .(Qmu) = 9.99900000E+03


 reading absorbing boundary...
   number of absorbing elements =            0

   any absorbing boundary flag  =  F
   PML boundary flag            =  F
   Stacey boundary flag         =  F


 Number of free surface elements:          200

 Setting up mesh

 Generating global mesh numbering (fast version)...

 Mesh numbering:
   Total number of elements:         2500

   Total number of acoustic elements           =         2500
   Total number of elastic/visco/poro elements =            0

 Approximate total number of grid points in the mesh
 (with a few duplicates coming from MPI buffers):        40401

 Approximate number of acoustic degrees of freedom in the mesh:        40401
 Approximate number of elastic degrees of freedom in the mesh:            0
   (there are 2 degrees of freedom per point for elastic elements)

 Approximate total number of degrees of freedom in the mesh
 (sum of the two values above):        40401

  (for simplicity viscoelastic or poroelastic elements, if any,
   are counted as elastic in the above three estimates;
   in reality they have more degrees of freedom)

 Mesh dimensions:
   Xmin,Xmax of the whole mesh =    0.0000000000000000        2000.0000000000000
   Zmin,Zmax of the whole mesh =   -2000.0000000000000        0.0000000000000000


 setup material arrays
 Domains:
   total number of acoustic elements        =         2500
   total number of elastic elements         =            0
   total number of poroelastic elements     =            0

 Setting up MPI communication arrays

   maximum number of MPI interfaces (for a single slice) =            0

   This is a single process simulation, no need for MPI communication

   number of outer elements  =            0
   number of inner elements  =         2500

   percentage of outer elements    0.00000000     %
   percentage of inner elements    100.000000     %

   number of global nodes in outer elements  =            0
   number of global nodes in inner elements  =        40401

   determining communication phases:
   acoustic domains:
   total number of outer/inner elements =            0        2500
   total percentage of outer elements    0.00000000     %
   total percentage of inner elements    100.000000     %

 All mesh setup done successfully

 sources:
   Total number of sources:            1

   setting parameters for source           1

 Source:            1

 receivers:
   Total number of receivers =            1


 ********************
  locating receivers
 ********************

 reading receiver information from the ./DATA/STATIONS file


 Station #            1     AA      S0001
             original x:    1400.00000
             original z:   -800.000000
 Closest estimate found:    0.00000000      m away
  in element         1485
  in rank            0
  at xi,gamma coordinates =    1.0000000000000000        1.0000000000000000
 Distance from source:    1612.45154      m


 end of receiver detection

 found a total of            1  receivers, this is okay

 using initialfield instead of source arrays

 preparing timerun...


 Preparing array allocations
   arrays for acoustic domains
   wavefield initialization
   done initialization

 Attenuation:
   viscoelastic  attenuation: F
   viscoacoustic attenuation: F

 Preparing mass matrices
   initializing mass matrices
   inverting mass matrices

 Preparing image coloring

 Checking mesh and stability

 ********
 Model: P (or PI) velocity min,max =    3000.0000000000000        3000.0000000000000
 Model: S velocity min,max         =    0.0000000000000000        0.0000000000000000
 Model: density min,max            =    2700.0000000000000        2700.0000000000000
 ********


 *********************************************
 *** Verification of simulation parameters ***
 *********************************************

 *** Max grid size =    40.000000000000227
 *** Min grid size =    39.999999999999773
 *** Max/min ratio =    1.0000000000000113

 *** Minimum GLL point distance  =    6.9069265858404165
 *** Average GLL point distance  =    9.9999999999999432

 *** Minimum period resolved     =    1.6666666666666760E-002
 *** Maximum frequency resolved  =    59.999999999999666      Hz

 *** Maximum suggested time step                 =    1.1511544309734027E-003
 *** Maximum suggested (Ricker) source frequency =    23.999999999999869

 *** for DT :    4.0000000000000002E-004
 *** Max CFL stability condition of the time scheme based on P wave velocity (must be below about 0.50 or so) =   0.17373863542433862


 Preparing initial field for plane wave source
   Implementing an analytical initial plane wave...

 *** calculation of the initial plane wave ***

 acoustic simulation, choosing a default initial field
 initial mode displacement introduced.

 mesh dimensions:
   x min/max =    0.00000000       2000.00000
   z min/max =   -2000.00000       0.00000000

 Number of grid points =        40401

 You can modify the location of the initial plane wave by changing xs and zs in DATA/SOURCE.
    for instance: xs=   0.0000000000000000         zs=   0.0000000000000000       (zs can/should be the height of the free surface)

 mode     (n,m) = (           2 ,           3 )
 mode amplitude =    1.0000000000000000
 mode angular frequency omega =    16.990760098708467       period =   0.36980013081681939      (s)

 file written: ./OUTPUT_FILES//AA.S0001.mode_solutionZ.dat

 Max norm of initial acoustic displacement =    3.14349495E-02


 Preparing source time function
   time stepping scheme:   LDDRK
   time stepping stages:            6
   time step size      :    3.99999990E-04

   number of time steps:         5500
   initital field      :  T


 done, preparation successful


 =========================================
 =  T i m e  e v o l u t i o n  l o o p  =
 =========================================


 Starting time iteration loop ...


 ******************************************************************
Time step number       5   t =    0.0016 s out of    5500
 ******************************************************************
 We have done    7.27404952E-02 % of the total
 Max absolute value of scalar field in fluid (acoustic) =    5.85917644E-02
 Elapsed time in seconds =    3.2000064849853516E-002
 Elapsed time in hh:mm:ss =      0 h 00 m 00 s
 Mean elapsed time per time step in seconds =    6.4000129699707028E-003
 Time steps remaining =         5495
 Estimated remaining time in seconds =    35.168071269989014
 Estimated remaining time in hh:mm:ss =      0 h 00 m 35 s
 Estimated total run time in seconds =    35.200071334838867
 Estimated total run time in hh:mm:ss =      0 h 00 m 35 s
 The run will finish approximately on: Thu Jun 25, 2020 22:13


 ******************************************************************
Time step number    1000   t =    0.3996 s out of    5500
 ******************************************************************
 We have done    18.1669388     % of the total
 Max absolute value of scalar field in fluid (acoustic) =   0.512215376
 Elapsed time in seconds =    6.9249999523162842
 Elapsed time in hh:mm:ss =      0 h 00 m 06 s
 Mean elapsed time per time step in seconds =    6.9249999523162842E-003
 Time steps remaining =         4500
 Estimated remaining time in seconds =    31.162499785423279
 Estimated remaining time in hh:mm:ss =      0 h 00 m 31 s
 Estimated total run time in seconds =    38.087499737739563
 Estimated total run time in hh:mm:ss =      0 h 00 m 38 s
 The run will finish approximately on: Thu Jun 25, 2020 22:13


 ******************************************************************
Time step number    2000   t =    0.7996 s out of    5500
 ******************************************************************
 We have done    36.3520622     % of the total
 Max absolute value of scalar field in fluid (acoustic) =   0.867861092
 Elapsed time in seconds =    13.746999979019165
 Elapsed time in hh:mm:ss =      0 h 00 m 13 s
 Mean elapsed time per time step in seconds =    6.8734999895095827E-003
 Time steps remaining =         3500
 Estimated remaining time in seconds =    24.057249963283539
 Estimated remaining time in hh:mm:ss =      0 h 00 m 24 s
 Estimated total run time in seconds =    37.804249942302704
 Estimated total run time in hh:mm:ss =      0 h 00 m 37 s
 The run will finish approximately on: Thu Jun 25, 2020 22:13


 ******************************************************************
Time step number    3000   t =    1.1996 s out of    5500
 ******************************************************************
 We have done    54.5371895     % of the total
 Max absolute value of scalar field in fluid (acoustic) =   0.999975920
 Elapsed time in seconds =    20.639000177383423
 Elapsed time in hh:mm:ss =      0 h 00 m 20 s
 Mean elapsed time per time step in seconds =    6.8796667257944744E-003
 Time steps remaining =         2500
 Estimated remaining time in seconds =    17.199166814486187
 Estimated remaining time in hh:mm:ss =      0 h 00 m 17 s
 Estimated total run time in seconds =    37.838166991869613
 Estimated total run time in hh:mm:ss =      0 h 00 m 37 s
 The run will finish approximately on: Thu Jun 25, 2020 22:13


 ******************************************************************
Time step number    4000   t =    1.5996 s out of    5500
 ******************************************************************
 We have done    72.7223129     % of the total
 Max absolute value of scalar field in fluid (acoustic) =   0.874535918
 Elapsed time in seconds =    27.427999973297119
 Elapsed time in hh:mm:ss =      0 h 00 m 27 s
 Mean elapsed time per time step in seconds =    6.8569999933242795E-003
 Time steps remaining =         1500
 Estimated remaining time in seconds =    10.285499989986420
 Estimated remaining time in hh:mm:ss =      0 h 00 m 10 s
 Estimated total run time in seconds =    37.713499963283539
 Estimated total run time in hh:mm:ss =      0 h 00 m 37 s
 The run will finish approximately on: Thu Jun 25, 2020 22:13


 ******************************************************************
Time step number    5000   t =    1.9996 s out of    5500
 ******************************************************************
 We have done    90.9074402     % of the total
 Max absolute value of scalar field in fluid (acoustic) =   0.523843288
 Elapsed time in seconds =    34.167999982833862
 Elapsed time in hh:mm:ss =      0 h 00 m 34 s
 Mean elapsed time per time step in seconds =    6.8335999965667728E-003
 Time steps remaining =          500
 Estimated remaining time in seconds =    3.4167999982833863
 Estimated remaining time in hh:mm:ss =      0 h 00 m 03 s
 Estimated total run time in seconds =    37.584799981117250
 Estimated total run time in hh:mm:ss =      0 h 00 m 37 s
 The run will finish approximately on: Thu Jun 25, 2020 22:13


 ******************************************************************
Time step number    5500   t =    2.1996 s out of    5500
 ******************************************************************
 We have done    100.000000     % of the total
 Max absolute value of scalar field in fluid (acoustic) =   0.290544003
 Elapsed time in seconds =    37.565999984741211
 Elapsed time in hh:mm:ss =      0 h 00 m 37 s
 Mean elapsed time per time step in seconds =    6.8301818154074927E-003
 Time steps remaining =            0
 Estimated remaining time in seconds =    0.0000000000000000
 Estimated remaining time in hh:mm:ss =      0 h 00 m 00 s
 Estimated total run time in seconds =    37.565999984741211
 Estimated total run time in hh:mm:ss =      0 h 00 m 37 s


 Total number of time steps written:         5500
 Writing the seismograms by master proc alone took    2.28029992E-02  seconds


 Total duration of the time loop in seconds =    37.5956650      s
 Total number of time steps =         5500
 Average duration of a time step of the time loop =    6.83557568E-03  s
 Total number of spectral elements in the mesh =         2500
     of which         2500  are regular elements
     and            0  are PML elements.
 Average duration of the calculation per spectral element =    2.73423029E-06  s


 Total duration of the timeloop in seconds, measured using
 date and time of the system :    37.5960007      s


 -------------------------------------------------------------------------------
 -------------------------------------------------------------------------------
 Program SPECFEM2D:
 -------------------------------------------------------------------------------
 -------------------------------------------------------------------------------
 cube elastic
 -------------------------------------------------------------------------------
 -------------------------------------------------------------------------------
 D a t e : 25 - 06 - 2020                                 T i m e  : 22:13:18
 -------------------------------------------------------------------------------
 -------------------------------------------------------------------------------

see results in directory: OUTPUT_FILES/

done
Thu Jun 25 22:13:18 CEST 2020
