running example: Tue May 31 21:11:47 AST 2016

setting up example...


  running mesher...


 **********************************************
 *** Specfem 2-D Mesher - MPI version       ***
 **********************************************

 Reading the parameter file...

 Title of the simulation: Test for 2D P-SV elastic



 Nb of solid, fluid or porous materials =            1

 Material #           1  isotropic
 rho,cp,cs =    2700.0000000000000        3000.0000000000000        1732.0500000000000        20.000000000000000        10.000000000000000     
 Material is solid


 mesh from internal meshing


 Reading interface data from file DATA/interfaces_elastic_analytic.dat to count the spectral elements
 Reading            2  points for interface            1
 Reading            2  points for interface            2
 Total number of layers in z direction =            1
 There are           50  spectral elements along Z in layer            1

 Total number of spectral elements along Z =           50


 Nb of regions in the mesh =            1

 Region            1
 IX from            1  to           50
 IZ from            1  to           50
 Material #            1  isotropic
 Material is solid
 vp =    3000.0000000000000     
 vs =    1732.0500000000000     
 rho =    2700.0000000000000     
 Poisson's ratio =   0.25000034968733698     
 QKappa =    20.000000000000000     
 Qmu =    10.000000000000000     
  -----

 Parameter file successfully read 

 The mesh contains         2500  elements

 Control elements have            4  nodes

 Source           1
   Position xs, zs =    1000.0000000000000       -400.00000000000000     

   Source type (1=force, 2=moment tensor):            1
   Force source:
   Angle of the source =    0.0000000000000000     
   Multiplying factor  =    10000000000.000000     

   Time function type (1=Ricker, 2=First derivative, 3=Gaussian, 4=Dirac, 5=Heaviside, 8=Read from file, 9=burst):           1
   Ricker wavelet (second-derivative):
   Frequency, delay =    8.0000000000000000        0.0000000000000000     

 Reading interface data from file DATA/interfaces_elastic_analytic.dat

 Min and max value of X in the grid =    0.0000000000000000        2000.0000000000000     
 Min and max value of Z in the grid =   -2000.0000000000000        0.0000000000000000     

 nedges_coupled (acoustic/elastic)     =            0
 nedges_coupled (acoustic/poroelastic) =            0
 nedges_coupled (poroelastic/elastic)  =            0

 slice            0  has number of spectral elements =        2500

 Position (x,z) of the source =    1000.0000000000000       -400.00000000000000     


 writing the DATA/STATIONS file


 There are            1  receivers

 Target positions (x,z) of the            1  receivers

 Receiver            1  =    1400.0000000000000       -800.00000000000000     

 This will be a serial simulation


  running solver...


 **********************************************
 **** Specfem 2-D Solver - MPI version     ****
 **********************************************

 There are            1  MPI processes
 Processes are numbered from 0 to            0

 There is a total of            1  slices

 NDIM =            2

 NGLLX =            5
 NGLLZ =            5

 using single precision for the calculations

 smallest and largest possible floating-point numbers are:    1.17549435E-38   3.40282347E+38


 -------------------------------------------------------------------------------
 -------------------------------------------------------------------------------
 Program SPECFEM2D: 
 -------------------------------------------------------------------------------
 -------------------------------------------------------------------------------
 Test for 2D P-SV elastic                          
 -------------------------------------------------------------------------------
 -------------------------------------------------------------------------------
 D a t e : 31 - 05 - 2016                                 T i m e  : 21:11:48
 -------------------------------------------------------------------------------
 -------------------------------------------------------------------------------


 C o n t r o l
 =============

     Number of spectral element control nodes. . .(npgeo) =    2601
     Number of space dimensions. . . . . . . . . . (NDIM) =       2


 C o n t r o l
 =============

     Display frequency . . . .(NSTEP_BETWEEN_OUTPUT_INFO) =    100
     Color display . . . . . . . . . . . . . . . (colors) =      1
             ==  0     black and white display              
             ==  1     color display                        
     Numbered mesh . . . . . . . . . . . . . . .(numbers) =      0
             ==  0     do not number the mesh               
             ==  1     number the mesh                      


 C o n t r o l
 =============

     Seismograms recording type . . . . . . .(seismotype) =      1
     Angle for first line of receivers. . . . .(anglerec) =   0.00


 C o n t r o l
 =============

     Read external initial field. . . . . .(initialfield) =      F
     Add Bielak conditions (add_Bielak_conditions_bottom) =      F
     Add Bielak conditions .(add_Bielak_conditions_right) =      F
     Add Bielak conditions . .(add_Bielak_conditions_top) =      F
     Add Bielak conditions. .(add_Bielak_conditions_left) =      F
     Attenuation on/off .(ATTENUATION_VISCOELASTIC_SOLID) =      F
     Save grid in ASCII file or not . (output_grid_ASCII) =      F
     Save a file with total energy or not.(output_energy) =      F


 C o n t r o l
 =============

     Vector display type . . . . . . . . .(imagetype_postscript) =      1
     Percentage of cut for vector plots. . . . . . . .(cutsnaps) =   1.00
     Subsampling of velocity model display. (subsamp_postscript) =      1


 I t e r a t i o n s 
 ===================

     Number of time iterations . . . . .(NSTEP) =    1500
     Time step increment. . . . . . . . . .(DT) =   8.000000E-04
     Total simulation duration . . . . . (ttot) =   1.200000E+00


     Source Type. . . . . . . . . . . . . . = Collocated Force
     X-position (meters). . . . . . . . . . =    1.0000000000E+03
     Y-position (meters). . . . . . . . . . =   -4.0000000000E+02
     Fundamental frequency (Hz) . . . . . . =    8.0000000000E+00
     Time delay (s) . . . . . . . . . . . . =    0.0000000000E+00
     Multiplying factor . . . . . . . . . . =    1.0000000000E+10
     Angle from vertical direction (deg). . =    0.0000000000E+00


     using USER_T0 . . . . . . . . . =   0.14999999999999999     
       original t0 . . . . . . . . . =   0.14999999999999999     
       min_tshift_src_original . . . =    0.0000000000000000     

     fix new simulation start time . =  -0.14999999999999999     
     source            1 uses tshift =    0.0000000000000000     

     Onset time. . . . . . =  -0.14999999999999999     
     Fundamental period. . =   0.12500000000000000     
     Fundamental frequency =    8.0000000000000000     
     --> onset time ok

     --> Spectral Elements (for mesh slice 0 only if using MPI runs) <--


     Number of spectral elements . . . . . . . . .  (nspec) =   2500
     Number of control nodes per element . . . . . (ngnod) =      4
     Number of points in X-direction . . . . . . . (NGLLX) =      5
     Number of points in Y-direction . . . . . . . (NGLLZ) =      5
     Number of points per element. . . . . . (NGLLX*NGLLZ) =     25
     Number of points for display . . . . . . (pointsdisp) =      6
     Number of element material sets . . . . . . . (numat) =      1
     Number of acoustic forcing elements (nelem_acforcing) =      0
     Number of acoustic free surf (nelem_acoustic_surface) =      0


 M a t e r i a l   s e t s :   2 D  (p o r o) e l a s t i c i t y
 ======================================================

     Number of material sets . . . . . . (numat) =     1


     ----------------------------------------
     -- Elastic (solid) isotropic material --
     ----------------------------------------
     Material set number. . . . . . . . (jmat) =     1
     P-wave velocity. . . . . . . . . . . (cp) = 3.00000000E+03
     S-wave velocity. . . . . . . . . . . (cs) = 1.73205000E+03
     Mass density. . . . . . . . . . (density) = 2.70000000E+03
     Poisson's ratio. . . . . . . . .(poisson) = 2.85714543E-01
     First Lame parameter Lambda. . . (lambda) = 8.10001511E+09
     Second Lame parameter Mu. . . . . . .(mu) = 8.09999245E+09
     Bulk modulus Kappa . . . . . . . .(kappa) = 1.62000076E+10
     Young's modulus E. . . . . . . . .(young) = 2.08285562E+10
     QKappa_attenuation .  . . . . . .(QKappa) = 2.00000000E+01
     Qmu_attenuation . . . . . . . . . . (Qmu) = 1.00000000E+01

 Absorbing boundaries:
   using PML boundary conditions


 Generating global mesh numbering (fast version)...


 Total number of elements:         2500
 decomposed as follows:

 Total number of elastic/visco/poro elements:         2500
 Total number of acoustic elements:            0

 Approximate total number of grid points in the mesh
 (with a few duplicates coming from MPI buffers):        40401

 Approximate number of acoustic degrees of freedom in the mesh:            0
 Approximate number of elastic degrees of freedom in the mesh:        80802
   (there are 2 degrees of freedom per point for elastic elements)

 Approximate total number of degrees of freedom in the mesh
 (sum of the two values above):        80802

  (for simplicity viscoelastic or poroelastic elements, if any,
   are counted as elastic in the above three estimates;
   in reality they have more degrees of freedom)


 Xmin,Xmax of the whole mesh =    0.0000000000000000        2000.0000000000000     
 Zmin,Zmax of the whole mesh =   -2000.0000000000000        0.0000000000000000     


 basic mesh setup is successful


 sources:

 *******************************
  locating force source
 *******************************


 Force source:
             original x:    1000.00000    
             original z:   -400.000000    
 closest estimate found:    0.00000000      m away
  in rank            0
  in element         1975
  at xi,gamma coordinates =    1.0000000000000000       0.99999999999999434     


 end of force source detection


 receivers:

 Total number of receivers =            1


 ********************
  locating receivers
 ********************

 reading receiver information from the DATA/STATIONS file


 Station #            1     AA      S0001                           
             original x:    1400.00000    
             original z:   -800.000000    
   distance from source:    565.685425    
 closest estimate found:    1.13686838E-13  m away
  in element         1535
  at process            0
  at xi,gamma coordinates =    1.0000000000000102      -0.99999999999999967     


 end of receiver detection

 found a total of            1  receivers, this is okay

 Preparing array allocations
   arrays for elastic domains
   wavefield initialization
   done initialization
 Preparing PML
 Total number of PML spectral elements:          564

 Preparing mass matrices
   initializing mass matrices
   inverting mass matrices

 Checking mesh and stability

 ********
 Model: P (or PI) velocity min,max =    3000.0000000000000        3000.0000000000000     
 Model: S velocity min,max         =    1732.0500000000000        1732.0500000000000     
 Model: density min,max            =    2700.0000000000000        2700.0000000000000     
 ********


 *********************************************
 *** Verification of simulation parameters ***
 *********************************************

 *** Max grid size =    40.000000000000227     
 *** Min grid size =    39.999999999999773     
 *** Max/min ratio =    1.0000000000000113     

 *** Minimum GLL point distance  =    6.9069265858404165     
 *** Average GLL point distance  =    9.9999999999999432     

 *** Minimum period resolved     =    2.8867526918969016E-002
 *** Maximum frequency resolved  =    34.640999999999799      Hz

 *** Maximum suggested time step                 =    1.1511544309734027E-003
 *** Maximum suggested (Ricker) source frequency =    13.856399999999921     

 *** for DT :    8.0000000000000004E-004
 *** Max CFL stability condition of the time scheme based on P wave velocity (must be below about 0.50 or so) =   0.34747727084867724     

 ----
 Number of points per wavelength:
   maximum dominant source frequency =    20.000000000000000      Hz
 
   Nb pts / lambdaP_fmax min =    14.999999999999915     
   Nb pts / lambdaP_fmax max =    15.000000000000000     
 
   Nb pts / lambdaS_fmax min =    8.6602499999999516     
   Nb pts / lambdaS_fmax max =    8.6602499999999996     

 -----------------------------------------

 histogram of min number of points per S wavelength in solid regions:

 there are         2500  elements out of         2500  in solid regions
   (i.e.,    100.000000     % of the total)

 (too small = poor resolution of calculations -
  too big = wasting memory and CPU time)
 (threshold value is around 4.5 points per S wavelength
  in elastic regions and 5.5 per P wavelength in fluid regions):

   8.57364750      -    8.58230782               0     0.00000000      %
   8.58230782      -    8.59096813               0     0.00000000      %
   8.59096813      -    8.59962845               0     0.00000000      %
   8.59962845      -    8.60828876               0     0.00000000      %
   8.60828876      -    8.61694908               0     0.00000000      %
   8.61694908      -    8.62560940               0     0.00000000      %
   8.62560940      -    8.63426971               0     0.00000000      %
   8.63426971      -    8.64292908               0     0.00000000      %
   8.64292908      -    8.65158939               0     0.00000000      %
   8.65158939      -    8.66024971             350     14.0000000      %
   8.66024971      -    8.66891003            2150     86.0000000      %
   8.66891003      -    8.67757034               0     0.00000000      %
   8.67757034      -    8.68623066               0     0.00000000      %
   8.68623066      -    8.69489098               0     0.00000000      %
   8.69489098      -    8.70355129               0     0.00000000      %
   8.70355129      -    8.71221161               0     0.00000000      %
   8.71221161      -    8.72087193               0     0.00000000      %
   8.72087193      -    8.72953224               0     0.00000000      %
   8.72953224      -    8.73819256               0     0.00000000      %
   8.73819256      -    8.74685287               0     0.00000000      %

 total percentage =    100.00000000000000       %


 total number of elements in fluid and solid regions =         2500

 Preparing image coloring
   allocating color image arrays
   locating all the pixels of color images
   done locating all the pixels of color images
   coloring image background based on vp
 Preparing source time function

 Saving the source time function in a text file...

 Preparing attenuation
 
 done, preparation successful
 

 =========================================
 =  T i m e  e v o l u t i o n  l o o p  =
 =========================================


 Starting time iteration loop ...


 ******************************************************************
Time step number       5   t =    0.0032 s out of    1500
 ******************************************************************
 We have done   0.266844571     % of the total
 Max norm of vector field in solid (elastic) =    1.0078156265080906E-005
 Elapsed time in seconds =   0.37700009346008301     
 Elapsed time in hh:mm:ss =      0 h 00 m 00 s
 Mean elapsed time per time step in seconds =    7.5400018692016596E-002
 Time steps remaining =         1495
 Estimated remaining time in seconds =    112.72302794456481     
 Estimated remaining time in hh:mm:ss =      0 h 01 m 52 s
 Estimated total run time in seconds =    113.10002803802489     
 Estimated total run time in hh:mm:ss =      0 h 01 m 53 s
 The run will finish approximately on: Tue May 31, 2016 21:14


 Creating color image of size          206  x          216  for time step            5
 drawing scalar image of part of the displacement vector...
 Color image created

 ******************************************************************
Time step number     100   t =    0.0792 s out of    1500
 ******************************************************************
 We have done    6.60440302     % of the total
 Max norm of vector field in solid (elastic) =   0.10584404319524765     
 Elapsed time in seconds =    10.450000047683716     
 Elapsed time in hh:mm:ss =      0 h 00 m 10 s
 Mean elapsed time per time step in seconds =   0.10450000047683716     
 Time steps remaining =         1400
 Estimated remaining time in seconds =    146.30000066757202     
 Estimated remaining time in hh:mm:ss =      0 h 02 m 26 s
 Estimated total run time in seconds =    156.75000071525574     
 Estimated total run time in hh:mm:ss =      0 h 02 m 36 s
 The run will finish approximately on: Tue May 31, 2016 21:14


 Creating color image of size          206  x          216  for time step          100
 drawing scalar image of part of the displacement vector...
 Color image created

 ******************************************************************
Time step number     200   t =    0.1592 s out of    1500
 ******************************************************************
 We have done    13.2755175     % of the total
 Max norm of vector field in solid (elastic) =   0.56022310256958008     
 Elapsed time in seconds =    20.226000070571899     
 Elapsed time in hh:mm:ss =      0 h 00 m 20 s
 Mean elapsed time per time step in seconds =   0.10113000035285950     
 Time steps remaining =         1300
 Estimated remaining time in seconds =    131.46900045871735     
 Estimated remaining time in hh:mm:ss =      0 h 02 m 11 s
 Estimated total run time in seconds =    151.69500052928925     
 Estimated total run time in hh:mm:ss =      0 h 02 m 31 s
 The run will finish approximately on: Tue May 31, 2016 21:14


 Creating color image of size          206  x          216  for time step          200
 drawing scalar image of part of the displacement vector...
 Color image created

 ******************************************************************
Time step number     300   t =    0.2392 s out of    1500
 ******************************************************************
 We have done    19.9466305     % of the total
 Max norm of vector field in solid (elastic) =    9.6103683114051819E-002
 Elapsed time in seconds =    30.365999937057495     
 Elapsed time in hh:mm:ss =      0 h 00 m 30 s
 Mean elapsed time per time step in seconds =   0.10121999979019165     
 Time steps remaining =         1200
 Estimated remaining time in seconds =    121.46399974822998     
 Estimated remaining time in hh:mm:ss =      0 h 02 m 01 s
 Estimated total run time in seconds =    151.82999968528748     
 Estimated total run time in hh:mm:ss =      0 h 02 m 31 s
 The run will finish approximately on: Tue May 31, 2016 21:14


 Creating color image of size          206  x          216  for time step          300
 drawing scalar image of part of the displacement vector...
 Color image created

 ******************************************************************
Time step number     400   t =    0.3192 s out of    1500
 ******************************************************************
 We have done    26.6177444     % of the total
 Max norm of vector field in solid (elastic) =    7.7093273401260376E-002
 Elapsed time in seconds =    39.805999994277954     
 Elapsed time in hh:mm:ss =      0 h 00 m 39 s
 Mean elapsed time per time step in seconds =    9.9514999985694880E-002
 Time steps remaining =         1100
 Estimated remaining time in seconds =    109.46649998426437     
 Estimated remaining time in hh:mm:ss =      0 h 01 m 49 s
 Estimated total run time in seconds =    149.27249997854233     
 Estimated total run time in hh:mm:ss =      0 h 02 m 29 s
 The run will finish approximately on: Tue May 31, 2016 21:14


 Creating color image of size          206  x          216  for time step          400
 drawing scalar image of part of the displacement vector...
 Color image created

 ******************************************************************
Time step number     500   t =    0.3992 s out of    1500
 ******************************************************************
 We have done    33.2888603     % of the total
 Max norm of vector field in solid (elastic) =    6.6081926226615906E-002
 Elapsed time in seconds =    49.229000091552734     
 Elapsed time in hh:mm:ss =      0 h 00 m 49 s
 Mean elapsed time per time step in seconds =    9.8458000183105465E-002
 Time steps remaining =         1000
 Estimated remaining time in seconds =    98.458000183105469     
 Estimated remaining time in hh:mm:ss =      0 h 01 m 38 s
 Estimated total run time in seconds =    147.68700027465820     
 Estimated total run time in hh:mm:ss =      0 h 02 m 27 s
 The run will finish approximately on: Tue May 31, 2016 21:14


 Creating color image of size          206  x          216  for time step          500
 drawing scalar image of part of the displacement vector...
 Color image created

 ******************************************************************
Time step number     600   t =    0.4792 s out of    1500
 ******************************************************************
 We have done    39.9599724     % of the total
 Max norm of vector field in solid (elastic) =    5.7649731636047363E-002
 Elapsed time in seconds =    58.641000032424927     
 Elapsed time in hh:mm:ss =      0 h 00 m 58 s
 Mean elapsed time per time step in seconds =    9.7735000054041551E-002
 Time steps remaining =          900
 Estimated remaining time in seconds =    87.961500048637390     
 Estimated remaining time in hh:mm:ss =      0 h 01 m 27 s
 Estimated total run time in seconds =    146.60250008106232     
 Estimated total run time in hh:mm:ss =      0 h 02 m 26 s
 The run will finish approximately on: Tue May 31, 2016 21:14


 Creating color image of size          206  x          216  for time step          600
 drawing scalar image of part of the displacement vector...
 Color image created

 ******************************************************************
Time step number     700   t =    0.5592 s out of    1500
 ******************************************************************
 We have done    46.6310883     % of the total
 Max norm of vector field in solid (elastic) =    5.1992528140544891E-002
 Elapsed time in seconds =    68.095000028610229     
 Elapsed time in hh:mm:ss =      0 h 01 m 08 s
 Mean elapsed time per time step in seconds =    9.7278571469443187E-002
 Time steps remaining =          800
 Estimated remaining time in seconds =    77.822857175554546     
 Estimated remaining time in hh:mm:ss =      0 h 01 m 17 s
 Estimated total run time in seconds =    145.91785720416476     
 Estimated total run time in hh:mm:ss =      0 h 02 m 25 s
 The run will finish approximately on: Tue May 31, 2016 21:14


 Creating color image of size          206  x          216  for time step          700
 drawing scalar image of part of the displacement vector...
 Color image created

 ******************************************************************
Time step number     800   t =    0.6392 s out of    1500
 ******************************************************************
 We have done    53.3022003     % of the total
 Max norm of vector field in solid (elastic) =    4.7733567655086517E-002
 Elapsed time in seconds =    77.523000001907349     
 Elapsed time in hh:mm:ss =      0 h 01 m 17 s
 Mean elapsed time per time step in seconds =    9.6903750002384187E-002
 Time steps remaining =          700
 Estimated remaining time in seconds =    67.832625001668930     
 Estimated remaining time in hh:mm:ss =      0 h 01 m 07 s
 Estimated total run time in seconds =    145.35562500357628     
 Estimated total run time in hh:mm:ss =      0 h 02 m 25 s
 The run will finish approximately on: Tue May 31, 2016 21:14


 Creating color image of size          206  x          216  for time step          800
 drawing scalar image of part of the displacement vector...
 Color image created

 ******************************************************************
Time step number     900   t =    0.7192 s out of    1500
 ******************************************************************
 We have done    59.9733162     % of the total
 Max norm of vector field in solid (elastic) =    4.0935482829809189E-002
 Elapsed time in seconds =    87.147000074386597     
 Elapsed time in hh:mm:ss =      0 h 01 m 27 s
 Mean elapsed time per time step in seconds =    9.6830000082651774E-002
 Time steps remaining =          600
 Estimated remaining time in seconds =    58.098000049591064     
 Estimated remaining time in hh:mm:ss =      0 h 00 m 58 s
 Estimated total run time in seconds =    145.24500012397766     
 Estimated total run time in hh:mm:ss =      0 h 02 m 25 s
 The run will finish approximately on: Tue May 31, 2016 21:14


 Creating color image of size          206  x          216  for time step          900
 drawing scalar image of part of the displacement vector...
 Color image created

 ******************************************************************
Time step number    1000   t =    0.7992 s out of    1500
 ******************************************************************
 We have done    66.6444321     % of the total
 Max norm of vector field in solid (elastic) =    3.3489763736724854E-002
 Elapsed time in seconds =    96.628999948501587     
 Elapsed time in hh:mm:ss =      0 h 01 m 36 s
 Mean elapsed time per time step in seconds =    9.6628999948501590E-002
 Time steps remaining =          500
 Estimated remaining time in seconds =    48.314499974250793     
 Estimated remaining time in hh:mm:ss =      0 h 00 m 48 s
 Estimated total run time in seconds =    144.94349992275238     
 Estimated total run time in hh:mm:ss =      0 h 02 m 24 s
 The run will finish approximately on: Tue May 31, 2016 21:14


 Creating color image of size          206  x          216  for time step         1000
 drawing scalar image of part of the displacement vector...
 Color image created

 ******************************************************************
Time step number    1100   t =    0.8792 s out of    1500
 ******************************************************************
 We have done    73.3155441     % of the total
 Max norm of vector field in solid (elastic) =    2.8017144650220871E-002
 Elapsed time in seconds =    106.11800003051758     
 Elapsed time in hh:mm:ss =      0 h 01 m 46 s
 Mean elapsed time per time step in seconds =    9.6470909118652345E-002
 Time steps remaining =          400
 Estimated remaining time in seconds =    38.588363647460938     
 Estimated remaining time in hh:mm:ss =      0 h 00 m 38 s
 Estimated total run time in seconds =    144.70636367797852     
 Estimated total run time in hh:mm:ss =      0 h 02 m 24 s
 The run will finish approximately on: Tue May 31, 2016 21:14


 Creating color image of size          206  x          216  for time step         1100
 drawing scalar image of part of the displacement vector...
 Color image created

 ******************************************************************
Time step number    1200   t =    0.9592 s out of    1500
 ******************************************************************
 We have done    79.9866562     % of the total
 Max norm of vector field in solid (elastic) =    2.3967271670699120E-002
 Elapsed time in seconds =    115.53800010681152     
 Elapsed time in hh:mm:ss =      0 h 01 m 55 s
 Mean elapsed time per time step in seconds =    9.6281666755676273E-002
 Time steps remaining =          300
 Estimated remaining time in seconds =    28.884500026702881     
 Estimated remaining time in hh:mm:ss =      0 h 00 m 28 s
 Estimated total run time in seconds =    144.42250013351440     
 Estimated total run time in hh:mm:ss =      0 h 02 m 24 s
 The run will finish approximately on: Tue May 31, 2016 21:14


 Creating color image of size          206  x          216  for time step         1200
 drawing scalar image of part of the displacement vector...
 Color image created

 ******************************************************************
Time step number    1300   t =    1.0392 s out of    1500
 ******************************************************************
 We have done    86.6577682     % of the total
 Max norm of vector field in solid (elastic) =    2.0759336650371552E-002
 Elapsed time in seconds =    124.96200013160706     
 Elapsed time in hh:mm:ss =      0 h 02 m 04 s
 Mean elapsed time per time step in seconds =    9.6124615485851578E-002
 Time steps remaining =          200
 Estimated remaining time in seconds =    19.224923097170315     
 Estimated remaining time in hh:mm:ss =      0 h 00 m 19 s
 Estimated total run time in seconds =    144.18692322877737     
 Estimated total run time in hh:mm:ss =      0 h 02 m 24 s
 The run will finish approximately on: Tue May 31, 2016 21:14


 Creating color image of size          206  x          216  for time step         1300
 drawing scalar image of part of the displacement vector...
 Color image created

 ******************************************************************
Time step number    1400   t =    1.1192 s out of    1500
 ******************************************************************
 We have done    93.3288879     % of the total
 Max norm of vector field in solid (elastic) =    1.8101688474416733E-002
 Elapsed time in seconds =    134.37800002098083     
 Elapsed time in hh:mm:ss =      0 h 02 m 14 s
 Mean elapsed time per time step in seconds =    9.5984285729272020E-002
 Time steps remaining =          100
 Estimated remaining time in seconds =    9.5984285729272028     
 Estimated remaining time in hh:mm:ss =      0 h 00 m 09 s
 Estimated total run time in seconds =    143.97642859390803     
 Estimated total run time in hh:mm:ss =      0 h 02 m 23 s
 The run will finish approximately on: Tue May 31, 2016 21:14


 Creating color image of size          206  x          216  for time step         1400
 drawing scalar image of part of the displacement vector...
 Color image created

 ******************************************************************
Time step number    1500   t =    1.1992 s out of    1500
 ******************************************************************
 We have done    100.000000     % of the total
 Max norm of vector field in solid (elastic) =    1.1682943440973759E-002
 Elapsed time in seconds =    143.78299999237061     
 Elapsed time in hh:mm:ss =      0 h 02 m 23 s
 Mean elapsed time per time step in seconds =    9.5855333328247069E-002
 Time steps remaining =            0
 Estimated remaining time in seconds =    0.0000000000000000     
 Estimated remaining time in hh:mm:ss =      0 h 00 m 00 s
 Estimated total run time in seconds =    143.78299999237061     
 Estimated total run time in hh:mm:ss =      0 h 02 m 23 s


 Creating color image of size          206  x          216  for time step         1500
 drawing scalar image of part of the displacement vector...
 Color image created


 -------------------------------------------------------------------------------
 -------------------------------------------------------------------------------
 Program SPECFEM2D: 
 -------------------------------------------------------------------------------
 -------------------------------------------------------------------------------
 Test for 2D P-SV elastic                          
 -------------------------------------------------------------------------------
 -------------------------------------------------------------------------------
 D a t e : 31 - 05 - 2016                                 T i m e  : 21:14:14
 -------------------------------------------------------------------------------
 -------------------------------------------------------------------------------

see results in directory: OUTPUT_FILES/

done
Tue May 31 21:14:14 AST 2016
