running example: Sat Feb  9 03:00:55 AST 2019

setting up example...


running mesher...


 **********************************************
 *** Specfem 2-D Mesher - MPI version       ***
 **********************************************

 Running Git version of the code corresponding to undefined in the case of old tar ball builds
 dating undefined in the case of old tar ball builds

 Reading the parameter file...

 Title of the simulation: Test for 2D P-SV elastic


 Receiver lines:
   Nb of line sets =            1

 Materials:
   Nb of solid, fluid or porous materials =            1

 --------
 Material #           1  isotropic
 rho,cp,cs   =    2700.0000000000000        3000.0000000000000        1732.0500000000000
 Qkappa, Qmu =    20.000000000000000        10.000000000000000
 Material is solid
 --------

 Mesh from internal meshing:

 Reading interface data from file: ./DATA/interfaces_elastic_analytic.dat
 Reading            2  points for interface            1
 Reading            2  points for interface            2

 Total number of layers in z direction =            1
 There are           50  spectral elements along Z in layer            1

 Total number of spectral elements along X =           50
 Total number of spectral elements along Z =           50

 Regions:
   Nb of regions in the mesh =            1

 ------
 Region            1
 IX from            1  to           50
 IZ from            1  to           50
 Material #            1  isotropic
 Material is solid
 vp     =    3000.00000
 vs     =    1732.05005
 rho    =    2700.00000
 Poisson's ratio =   0.250000358
 QKappa =    20.0000000
 Qmu    =    10.0000000
 ------
 Total number of spectral elements         =         2500


 Parameter file successfully read

 The mesh contains         2500  elements

 Control elements have            4  nodes

 Source           1
   Position xs, zs =    1000.0000000000000       -400.00000000000000

   Source type (1=force, 2=moment tensor, 3=Rayleigh wave, 4=plane incident P, 5=plane incident S):            1
   Force source:
   Angle of the source (deg) =    0.0000000000000000
   Multiplying factor  =    10000000000.000000

   Time function type (1=Ricker, 2=First derivative, 3=Gaussian, 4=Dirac, 5=Heaviside, 8=Read from file, 9=burst):           1
   Ricker wavelet (second-derivative):
   Frequency, delay =    8.0000000000000000        0.0000000000000000

 Reading interface data from file: ./DATA/interfaces_elastic_analytic.dat

 Mesh dimensions:
   Min and max value of X in the grid =    0.0000000000000000        2000.0000000000000
   Min and max value of Z in the grid =   -2000.0000000000000        0.0000000000000000

 nedges_coupled (acoustic/elastic)     =            0
 nedges_coupled (acoustic/poroelastic) =            0
 nedges_coupled (poroelastic/elastic)  =            0

 slice            0  has number of spectral elements =        2500

 Position (x,z) of the source =    1000.0000000000000       -400.00000000000000


 writing the ./DATA/STATIONS file


 There are            1  receivers

 Target positions (x,z) of the            1  receivers

 Receiver            1  =    1400.0000000000000       -800.00000000000000

 This will be a serial simulation


running solver...


 **********************************************
 **** Specfem 2-D Solver - MPI version     ****
 **********************************************

 Running Git version of the code corresponding to undefined in the case of old tar ball builds
 dating undefined in the case of old tar ball builds

 There are            1  MPI processes
 Processes are numbered from 0 to            0

 There is a total of            1  slices


 NDIM =            2

 NGLLX =            5
 NGLLZ =            5

 using single precision for the calculations

 smallest and largest possible floating-point numbers are:    1.17549435E-38   3.40282347E+38


 -------------------------------------------------------------------------------
 -------------------------------------------------------------------------------
 Program SPECFEM2D:
 -------------------------------------------------------------------------------
 -------------------------------------------------------------------------------
 Test for 2D P-SV elastic
 -------------------------------------------------------------------------------
 -------------------------------------------------------------------------------
 D a t e : 09 - 02 - 2019                                 T i m e  : 03:00:55
 -------------------------------------------------------------------------------
 -------------------------------------------------------------------------------


 C o n t r o l
 =============

     Number of spectral element control nodes. . .(npgeo) =    2601
     Number of space dimensions. . . . . . . . . . (NDIM) =       2


 C o n t r o l
 =============

     Display frequency . . . .(NSTEP_BETWEEN_OUTPUT_INFO) =    100
     Color display . . . . . . . . . . . . . . . (colors) =      1
      == 0     black and white display
      == 1     color display
     Numbered mesh . . . . . . . . . . . . . . .(numbers) =      0
      == 0     do not number the mesh
      == 1     number the mesh


 C o n t r o l
 =============

     Seismograms recording type . . . . . . .(seismotype) = 1
     Angle for first line of receivers. . . . .(anglerec) =   0.00


 C o n t r o l
 =============

     Read external initial field. . . . . .(initialfield) =      F
     Add Bielak conditions (add_Bielak_conditions_bottom) =      F
     Add Bielak conditions .(add_Bielak_conditions_right) =      F
     Add Bielak conditions . .(add_Bielak_conditions_top) =      F
     Add Bielak conditions. .(add_Bielak_conditions_left) =      F
     Attenuation in solid . . .(ATTENUATION_VISCOELASTIC) =      F
     Attenuation in fluid . . (ATTENUATION_VISCOACOUSTIC) =      F
     Save grid in ASCII file or not . (output_grid_ASCII) =      F
     Save a file with total energy or not.(OUTPUT_ENERGY) =      F


 C o n t r o l
 =============

     Vector display type . . . . . . . . .(imagetype_postscript) =      1
     Percentage of cut for vector plots. . . . . . . .(cutsnaps) =   1.00
     Subsampling of velocity model display. (subsamp_postscript) =      1


 I t e r a t i o n s
 ===================

     Number of time iterations . . . . .(NSTEP) =    1500
     Time step increment. . . . . . . . . .(DT) =   8.000000E-04
     Total simulation duration . . . . . (ttot) =   1.200000E+00


     Source Type. . . . . . . . . . . . . . = Collocated Force
     X-position (meters). . . . . . . . . . =    1.0000000000E+03
     Y-position (meters). . . . . . . . . . =   -4.0000000000E+02
     Fundamental frequency (Hz) . . . . . . =    8.0000000000E+00
     Time delay (s) . . . . . . . . . . . . =    0.0000000000E+00
     Multiplying factor . . . . . . . . . . =    1.0000000000E+10
     Angle from vertical direction (deg). . =    0.0000000000E+00


     using USER_T0 . . . . . . . . . =   0.14999999999999999
       original t0 . . . . . . . . . =   0.14999999999999999
       min_tshift_src_original . . . =    0.0000000000000000

     fix new simulation start time . =  -0.14999999999999999
     source            1 uses tshift =    0.0000000000000000

     Onset time. . . . . . =  -0.14999999999999999
     Fundamental period. . =   0.12500000000000000
     Fundamental frequency =    8.0000000000000000
     The onset time is ok

     -- Spectral Elements --


     Number of spectral elements . . . . . . . . .  (nspec) =   2500
     Number of control nodes per element . . . . . (ngnod) =      4
     Number of points in X-direction . . . . . . . (NGLLX) =      5
     Number of points in Y-direction . . . . . . . (NGLLZ) =      5
     Number of points per element. . . . . . (NGLLX*NGLLZ) =     25
     Number of points for display . . . . . . (pointsdisp) =      6
     Number of element material sets . . . . . . . (numat) =      1
     Number of acoustic forcing elements (nelem_acforcing) =      0
     Number of acoustic free surf (nelem_acoustic_surface) =      0


 M a t e r i a l   s e t s :   2 D  (p o r o) e l a s t i c i t y
 ======================================================

     Number of material sets . . . . . . (numat) =     1


     ----------------------------------------
     -- Elastic (solid) isotropic material --
     ----------------------------------------
     Material set number. . . . . . . . (jmat) =     1
     P-wave velocity. . . . . . . . . . . (cp) = 3.00000000E+03
     S-wave velocity. . . . . . . . . . . (cs) = 1.73205000E+03
     Mass density. . . . . . . . . . (density) = 2.70000000E+03
     Poisson's ratio. . . . . . . . .(poisson) = 2.50000350E-01
     First Lame parameter Lambda. . . (lambda) = 8.10001511E+09
     Second Lame parameter Mu. . . . . . .(mu) = 8.09999245E+09
     Bulk modulus Kappa . . . . . . . .(kappa) = 1.62000076E+10
     Young's modulus E. . . . . . . . .(young) = 2.08285562E+10
     QKappa_attenuation .  . . . . . .(QKappa) = 2.00000000E+01
     Qmu_attenuation . . . . . . . . . . (Qmu) = 1.00000000E+01

 Absorbing boundaries:
   using PML boundary conditions

 Setting up mesh

 Generating global mesh numbering (fast version)...

 Mesh numbering:
   Total number of elements:         2500

   Total number of acoustic elements           =            0
   Total number of elastic/visco/poro elements =         2500

 Approximate total number of grid points in the mesh
 (with a few duplicates coming from MPI buffers):        40401

 Approximate number of acoustic degrees of freedom in the mesh:            0
 Approximate number of elastic degrees of freedom in the mesh:        80802
   (there are 2 degrees of freedom per point for elastic elements)

 Approximate total number of degrees of freedom in the mesh
 (sum of the two values above):        80802

  (for simplicity viscoelastic or poroelastic elements, if any,
   are counted as elastic in the above three estimates;
   in reality they have more degrees of freedom)

 Mesh dimensions:
   Xmin,Xmax of the whole mesh =    0.0000000000000000        2000.0000000000000
   Zmin,Zmax of the whole mesh =   -2000.0000000000000        0.0000000000000000

 Domains:
   total number of acoustic elements        =            0
   total number of elastic elements         =         2500
   total number of poroelastic elements     =            0

 Setting up MPI communication arrays

   maximum number of MPI interfaces (for a single slice) =            0

   This is a single process simulation, no need for MPI communication

   number of outer elements  =            0
   number of inner elements  =         2500

   percentage of outer elements    0.00000000     %
   percentage of inner elements    100.000000     %

   number of global nodes in outer elements  =            0
   number of global nodes in inner elements  =        40401

   determining communication phases:
   elastic domains:
   total number of outer/inner elements =            0        2500
   total percentage of outer elements    0.00000000     %
   total percentage of inner elements    100.000000     %

 All mesh setup done successfully

 sources:

 *******************************
  locating force source
 *******************************


 Force source:
             original x:    1000.00000
             original z:   -400.000000
 Closest estimate found:    0.00000000      m away
  in rank            0
  in element         1975
  in elastic domain
  at xi,gamma coordinates =    1.0000000000000000       0.99999999999999434


 end of force source detection


 receivers:

 Total number of receivers =            1


 ********************
  locating receivers
 ********************

 reading receiver information from the ./DATA/STATIONS file


 Station #            1     AA      S0001
             original x:    1400.00000
             original z:   -800.000000
 Closest estimate found:    0.00000000      m away
  in element         1485
  in rank            0
  at xi,gamma coordinates =    1.0000000000000000        1.0000000000000000
 Distance from source:    565.685425      m


 end of receiver detection

 found a total of            1  receivers, this is okay


 Preparing array allocations
   arrays for elastic domains
   wavefield initialization
   done initialization

 Preparing PML
 Total number of PML spectral elements:          564


 Preparing mass matrices
   initializing mass matrices
   inverting mass matrices

 Preparing image coloring

 Checking mesh and stability

 ********
 Model: P (or PI) velocity min,max =    3000.0000000000000        3000.0000000000000
 Model: S velocity min,max         =    1732.0500000000000        1732.0500000000000
 Model: density min,max            =    2700.0000000000000        2700.0000000000000
 ********


 *********************************************
 *** Verification of simulation parameters ***
 *********************************************

 *** Max grid size =    40.000000000000227
 *** Min grid size =    39.999999999999773
 *** Max/min ratio =    1.0000000000000113

 *** Minimum GLL point distance  =    6.9069265858404165
 *** Average GLL point distance  =    9.9999999999999432

 *** Minimum period resolved     =    2.8867526918969016E-002
 *** Maximum frequency resolved  =    34.640999999999799      Hz

 *** Maximum suggested time step                 =    1.1511544309734027E-003
 *** Maximum suggested (Ricker) source frequency =    13.856399999999921

 *** for DT :    8.0000000000000004E-004
 *** Max CFL stability condition of the time scheme based on P wave velocity (must be below about 0.50 or so) =   0.34747727084867724

 ----
 Number of points per wavelength:
 ----
   Source            1
   maximum dominant source frequency =    20.000000000000000      Hz

   Nb pts / lambdaP_fmax min =    15.0000000
   Nb pts / lambdaP_fmax max =    15.0000000

   Nb pts / lambdaS_fmax min =    8.66024971
   Nb pts / lambdaS_fmax max =    8.66024971

 -----------------------------------------

 histogram of min number of points per S wavelength in solid regions:

 there are         2500  elements out of         2500  in solid regions
   (i.e.,    100.000000     % of the total)

 (too small = poor resolution of calculations -
  too big = wasting memory and CPU time)
 (threshold value is around 4.5 points per S wavelength
  in elastic regions and 5.5 per P wavelength in fluid regions):

   8.57364750      -    8.58230782               0     0.00000000      %
   8.58230782      -    8.59096813               0     0.00000000      %
   8.59096813      -    8.59962845               0     0.00000000      %
   8.59962845      -    8.60828876               0     0.00000000      %
   8.60828876      -    8.61694908               0     0.00000000      %
   8.61694908      -    8.62560940               0     0.00000000      %
   8.62560940      -    8.63426971               0     0.00000000      %
   8.63426971      -    8.64292908               0     0.00000000      %
   8.64292908      -    8.65158939               0     0.00000000      %
   8.65158939      -    8.66024971             350     14.0000000      %
   8.66024971      -    8.66891003            2150     86.0000000      %
   8.66891003      -    8.67757034               0     0.00000000      %
   8.67757034      -    8.68623066               0     0.00000000      %
   8.68623066      -    8.69489098               0     0.00000000      %
   8.69489098      -    8.70355129               0     0.00000000      %
   8.70355129      -    8.71221161               0     0.00000000      %
   8.71221161      -    8.72087193               0     0.00000000      %
   8.72087193      -    8.72953224               0     0.00000000      %
   8.72953224      -    8.73819256               0     0.00000000      %
   8.73819256      -    8.74685287               0     0.00000000      %

 total percentage =    100.00000000000000       %


 total number of elements in fluid and solid regions =         2500


 Preparing source time function
   saving the source time function in a text file...

 Preparing material arrays

 Preparing image coloring
   allocating color image arrays
   locating all the pixels of color images
   total number of image pixels =        42230
   done locating all the pixels of color images
   coloring image background based on vp

 done, preparation successful


 =========================================
 =  T i m e  e v o l u t i o n  l o o p  =
 =========================================


 Starting time iteration loop ...


 ******************************************************************
Time step number       5   t =    0.0032 s out of    1500
 ******************************************************************
 We have done   0.266844571     % of the total
 Max norm of vector field in solid (elastic) =    1.00781554E-05
 Elapsed time in seconds =    2.6999950408935547E-002
 Elapsed time in hh:mm:ss =      0 h 00 m 00 s
 Mean elapsed time per time step in seconds =    5.3999900817871095E-003
 Time steps remaining =         1495
 Estimated remaining time in seconds =    8.0729851722717285
 Estimated remaining time in hh:mm:ss =      0 h 00 m 08 s
 Estimated total run time in seconds =    8.0999851226806641
 Estimated total run time in hh:mm:ss =      0 h 00 m 08 s
 The run will finish approximately on: Sat Feb 09, 2019 03:01


 Creating color image of size          206  x          216  for time step            5
 drawing scalar image of the forward wavefield displacement...
 Color image maximum amplitude =    7.8293373917404118E-007
 Color image created

 ******************************************************************
Time step number     100   t =    0.0792 s out of    1500
 ******************************************************************
 We have done    6.60440302     % of the total
 Max norm of vector field in solid (elastic) =   0.105844066
 Elapsed time in seconds =   0.54099988937377930
 Elapsed time in hh:mm:ss =      0 h 00 m 00 s
 Mean elapsed time per time step in seconds =    5.4099988937377930E-003
 Time steps remaining =         1400
 Estimated remaining time in seconds =    7.5739984512329102
 Estimated remaining time in hh:mm:ss =      0 h 00 m 07 s
 Estimated total run time in seconds =    8.1149983406066895
 Estimated total run time in hh:mm:ss =      0 h 00 m 08 s
 The run will finish approximately on: Sat Feb 09, 2019 03:01


 Creating color image of size          206  x          216  for time step          100
 drawing scalar image of the forward wavefield displacement...
 Color image maximum amplitude =    4.1798055171966553E-002
 Color image created

 ******************************************************************
Time step number     200   t =    0.1592 s out of    1500
 ******************************************************************
 We have done    13.2755175     % of the total
 Max norm of vector field in solid (elastic) =   0.560223043
 Elapsed time in seconds =    1.0759999752044678
 Elapsed time in hh:mm:ss =      0 h 00 m 01 s
 Mean elapsed time per time step in seconds =    5.3799998760223388E-003
 Time steps remaining =         1300
 Estimated remaining time in seconds =    6.9939998388290405
 Estimated remaining time in hh:mm:ss =      0 h 00 m 06 s
 Estimated total run time in seconds =    8.0699998140335083
 Estimated total run time in hh:mm:ss =      0 h 00 m 08 s
 The run will finish approximately on: Sat Feb 09, 2019 03:01


 Creating color image of size          206  x          216  for time step          200
 drawing scalar image of the forward wavefield displacement...
 Color image maximum amplitude =   0.28431960940361029
 Color image created

 ******************************************************************
Time step number     300   t =    0.2392 s out of    1500
 ******************************************************************
 We have done    19.9466305     % of the total
 Max norm of vector field in solid (elastic) =    9.61037129E-02
 Elapsed time in seconds =    1.6219999790191650
 Elapsed time in hh:mm:ss =      0 h 00 m 01 s
 Mean elapsed time per time step in seconds =    5.4066665967305505E-003
 Time steps remaining =         1200
 Estimated remaining time in seconds =    6.4879999160766602
 Estimated remaining time in hh:mm:ss =      0 h 00 m 06 s
 Estimated total run time in seconds =    8.1099998950958252
 Estimated total run time in hh:mm:ss =      0 h 00 m 08 s
 The run will finish approximately on: Sat Feb 09, 2019 03:01


 Creating color image of size          206  x          216  for time step          300
 drawing scalar image of the forward wavefield displacement...
 Color image maximum amplitude =    9.6208825707437245E-002
 Color image created

 ******************************************************************
Time step number     400   t =    0.3192 s out of    1500
 ******************************************************************
 We have done    26.6177444     % of the total
 Max norm of vector field in solid (elastic) =    7.70932660E-02
 Elapsed time in seconds =    2.1659998893737793
 Elapsed time in hh:mm:ss =      0 h 00 m 02 s
 Mean elapsed time per time step in seconds =    5.4149997234344480E-003
 Time steps remaining =         1100
 Estimated remaining time in seconds =    5.9564996957778931
 Estimated remaining time in hh:mm:ss =      0 h 00 m 05 s
 Estimated total run time in seconds =    8.1224995851516724
 Estimated total run time in hh:mm:ss =      0 h 00 m 08 s
 The run will finish approximately on: Sat Feb 09, 2019 03:01


 Creating color image of size          206  x          216  for time step          400
 drawing scalar image of the forward wavefield displacement...
 Color image maximum amplitude =    7.6551485273921985E-002
 Color image created

 ******************************************************************
Time step number     500   t =    0.3992 s out of    1500
 ******************************************************************
 We have done    33.2888603     % of the total
 Max norm of vector field in solid (elastic) =    6.60818890E-02
 Elapsed time in seconds =    2.7239999771118164
 Elapsed time in hh:mm:ss =      0 h 00 m 02 s
 Mean elapsed time per time step in seconds =    5.4479999542236326E-003
 Time steps remaining =         1000
 Estimated remaining time in seconds =    5.4479999542236328
 Estimated remaining time in hh:mm:ss =      0 h 00 m 05 s
 Estimated total run time in seconds =    8.1719999313354492
 Estimated total run time in hh:mm:ss =      0 h 00 m 08 s
 The run will finish approximately on: Sat Feb 09, 2019 03:01


 Creating color image of size          206  x          216  for time step          500
 drawing scalar image of the forward wavefield displacement...
 Color image maximum amplitude =    6.6088163228212440E-002
 Color image created

 ******************************************************************
Time step number     600   t =    0.4792 s out of    1500
 ******************************************************************
 We have done    39.9599724     % of the total
 Max norm of vector field in solid (elastic) =    5.76497391E-02
 Elapsed time in seconds =    3.2679998874664307
 Elapsed time in hh:mm:ss =      0 h 00 m 03 s
 Mean elapsed time per time step in seconds =    5.4466664791107174E-003
 Time steps remaining =          900
 Estimated remaining time in seconds =    4.9019998311996460
 Estimated remaining time in hh:mm:ss =      0 h 00 m 04 s
 Estimated total run time in seconds =    8.1699997186660767
 Estimated total run time in hh:mm:ss =      0 h 00 m 08 s
 The run will finish approximately on: Sat Feb 09, 2019 03:01


 Creating color image of size          206  x          216  for time step          600
 drawing scalar image of the forward wavefield displacement...
 Color image maximum amplitude =    5.7430374930865995E-002
 Color image created

 ******************************************************************
Time step number     700   t =    0.5592 s out of    1500
 ******************************************************************
 We have done    46.6310883     % of the total
 Max norm of vector field in solid (elastic) =    5.19924052E-02
 Elapsed time in seconds =    3.8129999637603760
 Elapsed time in hh:mm:ss =      0 h 00 m 03 s
 Mean elapsed time per time step in seconds =    5.4471428053719656E-003
 Time steps remaining =          800
 Estimated remaining time in seconds =    4.3577142442975720
 Estimated remaining time in hh:mm:ss =      0 h 00 m 04 s
 Estimated total run time in seconds =    8.1707142080579480
 Estimated total run time in hh:mm:ss =      0 h 00 m 08 s
 The run will finish approximately on: Sat Feb 09, 2019 03:01


 Creating color image of size          206  x          216  for time step          700
 drawing scalar image of the forward wavefield displacement...
 Color image maximum amplitude =    5.2057795599640737E-002
 Color image created

 ******************************************************************
Time step number     800   t =    0.6392 s out of    1500
 ******************************************************************
 We have done    53.3022003     % of the total
 Max norm of vector field in solid (elastic) =    4.77335751E-02
 Elapsed time in seconds =    4.3819999694824219
 Elapsed time in hh:mm:ss =      0 h 00 m 04 s
 Mean elapsed time per time step in seconds =    5.4774999618530272E-003
 Time steps remaining =          700
 Estimated remaining time in seconds =    3.8342499732971191
 Estimated remaining time in hh:mm:ss =      0 h 00 m 03 s
 Estimated total run time in seconds =    8.2162499427795410
 Estimated total run time in hh:mm:ss =      0 h 00 m 08 s
 The run will finish approximately on: Sat Feb 09, 2019 03:01


 Creating color image of size          206  x          216  for time step          800
 drawing scalar image of the forward wavefield displacement...
 Color image maximum amplitude =    4.7607443324351927E-002
 Color image created

 ******************************************************************
Time step number     900   t =    0.7192 s out of    1500
 ******************************************************************
 We have done    59.9733162     % of the total
 Max norm of vector field in solid (elastic) =    4.09354679E-02
 Elapsed time in seconds =    4.9769999980926514
 Elapsed time in hh:mm:ss =      0 h 00 m 04 s
 Mean elapsed time per time step in seconds =    5.5299999978807241E-003
 Time steps remaining =          600
 Estimated remaining time in seconds =    3.3179999987284345
 Estimated remaining time in hh:mm:ss =      0 h 00 m 03 s
 Estimated total run time in seconds =    8.2949999968210868
 Estimated total run time in hh:mm:ss =      0 h 00 m 08 s
 The run will finish approximately on: Sat Feb 09, 2019 03:01


 Creating color image of size          206  x          216  for time step          900
 drawing scalar image of the forward wavefield displacement...
 Color image maximum amplitude =    4.0213437223058854E-002
 Color image created

 ******************************************************************
Time step number    1000   t =    0.7992 s out of    1500
 ******************************************************************
 We have done    66.6444321     % of the total
 Max norm of vector field in solid (elastic) =    3.34897153E-02
 Elapsed time in seconds =    5.5190000534057617
 Elapsed time in hh:mm:ss =      0 h 00 m 05 s
 Mean elapsed time per time step in seconds =    5.5190000534057621E-003
 Time steps remaining =          500
 Estimated remaining time in seconds =    2.7595000267028809
 Estimated remaining time in hh:mm:ss =      0 h 00 m 02 s
 Estimated total run time in seconds =    8.2785000801086426
 Estimated total run time in hh:mm:ss =      0 h 00 m 08 s
 The run will finish approximately on: Sat Feb 09, 2019 03:01


 Creating color image of size          206  x          216  for time step         1000
 drawing scalar image of the forward wavefield displacement...
 Color image maximum amplitude =    3.2902470586894376E-002
 Color image created

 ******************************************************************
Time step number    1100   t =    0.8792 s out of    1500
 ******************************************************************
 We have done    73.3155441     % of the total
 Max norm of vector field in solid (elastic) =    2.80171167E-02
 Elapsed time in seconds =    6.1269998550415039
 Elapsed time in hh:mm:ss =      0 h 00 m 06 s
 Mean elapsed time per time step in seconds =    5.5699998682195492E-003
 Time steps remaining =          400
 Estimated remaining time in seconds =    2.2279999472878198
 Estimated remaining time in hh:mm:ss =      0 h 00 m 02 s
 Estimated total run time in seconds =    8.3549998023293242
 Estimated total run time in hh:mm:ss =      0 h 00 m 08 s
 The run will finish approximately on: Sat Feb 09, 2019 03:01


 Creating color image of size          206  x          216  for time step         1100
 drawing scalar image of the forward wavefield displacement...
 Color image maximum amplitude =    2.7646262704828374E-002
 Color image created

 ******************************************************************
Time step number    1200   t =    0.9592 s out of    1500
 ******************************************************************
 We have done    79.9866562     % of the total
 Max norm of vector field in solid (elastic) =    2.39673257E-02
 Elapsed time in seconds =    6.7620000839233398
 Elapsed time in hh:mm:ss =      0 h 00 m 06 s
 Mean elapsed time per time step in seconds =    5.6350000699361162E-003
 Time steps remaining =          300
 Estimated remaining time in seconds =    1.6905000209808350
 Estimated remaining time in hh:mm:ss =      0 h 00 m 01 s
 Estimated total run time in seconds =    8.4525001049041748
 Estimated total run time in hh:mm:ss =      0 h 00 m 08 s
 The run will finish approximately on: Sat Feb 09, 2019 03:01


 Creating color image of size          206  x          216  for time step         1200
 drawing scalar image of the forward wavefield displacement...
 Color image maximum amplitude =    2.3328015745483426E-002
 Color image created

 ******************************************************************
Time step number    1300   t =    1.0392 s out of    1500
 ******************************************************************
 We have done    86.6577682     % of the total
 Max norm of vector field in solid (elastic) =    2.07593422E-02
 Elapsed time in seconds =    7.3849999904632568
 Elapsed time in hh:mm:ss =      0 h 00 m 07 s
 Mean elapsed time per time step in seconds =    5.6807692234332741E-003
 Time steps remaining =          200
 Estimated remaining time in seconds =    1.1361538446866548
 Estimated remaining time in hh:mm:ss =      0 h 00 m 01 s
 Estimated total run time in seconds =    8.5211538351499119
 Estimated total run time in hh:mm:ss =      0 h 00 m 08 s
 The run will finish approximately on: Sat Feb 09, 2019 03:01


 Creating color image of size          206  x          216  for time step         1300
 drawing scalar image of the forward wavefield displacement...
 Color image maximum amplitude =    2.0432716469938880E-002
 Color image created

 ******************************************************************
Time step number    1400   t =    1.1192 s out of    1500
 ******************************************************************
 We have done    93.3288879     % of the total
 Max norm of vector field in solid (elastic) =    1.81017593E-02
 Elapsed time in seconds =    7.9559998512268066
 Elapsed time in hh:mm:ss =      0 h 00 m 07 s
 Mean elapsed time per time step in seconds =    5.6828570365905764E-003
 Time steps remaining =          100
 Estimated remaining time in seconds =   0.56828570365905762
 Estimated remaining time in hh:mm:ss =      0 h 00 m 00 s
 Estimated total run time in seconds =    8.5242855548858643
 Estimated total run time in hh:mm:ss =      0 h 00 m 08 s
 The run will finish approximately on: Sat Feb 09, 2019 03:01


 Creating color image of size          206  x          216  for time step         1400
 drawing scalar image of the forward wavefield displacement...
 Color image maximum amplitude =    1.7884816440588976E-002
 Color image created

 ******************************************************************
Time step number    1500   t =    1.1992 s out of    1500
 ******************************************************************
 We have done    100.000000     % of the total
 Max norm of vector field in solid (elastic) =    1.16854236E-02
 Elapsed time in seconds =    8.5859999656677246
 Elapsed time in hh:mm:ss =      0 h 00 m 08 s
 Mean elapsed time per time step in seconds =    5.7239999771118164E-003
 Time steps remaining =            0
 Estimated remaining time in seconds =    0.0000000000000000
 Estimated remaining time in hh:mm:ss =      0 h 00 m 00 s
 Estimated total run time in seconds =    8.5859999656677246
 Estimated total run time in hh:mm:ss =      0 h 00 m 08 s


 Creating color image of size          206  x          216  for time step         1500
 drawing scalar image of the forward wavefield displacement...
 Color image maximum amplitude =    3.2711990641638143E-003
 Color image created

 Total duration of the time loop in seconds =    8.58721638      s
 Total number of time steps =         1500
 Average duration of a time step of the time loop =    5.72481100E-03  s
 Total number of spectral elements in the mesh =         2500
     of which         1936  are regular elements
     and          564  are PML elements.
 Average duration of the calculation per spectral element =    2.28992440E-06  s


 Total duration of the timeloop in seconds, measured using
 date and time of the system :    8.59799957      s


 -------------------------------------------------------------------------------
 -------------------------------------------------------------------------------
 Program SPECFEM2D:
 -------------------------------------------------------------------------------
 -------------------------------------------------------------------------------
 Test for 2D P-SV elastic
 -------------------------------------------------------------------------------
 -------------------------------------------------------------------------------
 D a t e : 09 - 02 - 2019                                 T i m e  : 03:01:04
 -------------------------------------------------------------------------------
 -------------------------------------------------------------------------------

see results in directory: OUTPUT_FILES/

done
Sat Feb 9 03:01:04 AST 2019
