running example: Wed Nov 11 09:58:54 +03 2020

setting up example...


running mesher on 4 processors...


 **********************************************
 *** Specfem 2-D Mesher - MPI version       ***
 **********************************************

 Running Git version of the code corresponding to undefined in the case of old tar ball builds
 dating undefined in the case of old tar ball builds

 Reading the parameter file...

 Title of the simulation: Axisymmetric simple simulation

 Axisymmetric simulation

 Receiver lines:
   Nb of line sets =            3

 Materials:
   Nb of solid, fluid or porous materials =            2

 --------
 Material #           1  isotropic
 rho,cp,cs   =    2500.0000000000000        3400.0000000000000        1963.0000000000000
 Qkappa, Qmu =    100.00000000000000        100.00000000000000
 Material is solid
 --------
 Material #           2  isotropic
 rho,cp,cs   =    1020.0000000000000        1500.0000000000000        0.0000000000000000
 Qkappa, Qmu =    9999.0000000000000        9999.0000000000000
 Material is fluid
 --------


 Mesh from internal meshing:

 Reading interface data from file: ./DATA/./interfaces_axisym.dat
 Reading            2  points for interface            1
 Reading            2  points for interface            2
 Reading            2  points for interface            3

 Total number of layers in z direction =            2
 There are           60  spectral elements along Z in layer            1
 There are           60  spectral elements along Z in layer            2

 Total number of spectral elements along X =          180
 Total number of spectral elements along Z =          120

 Regions:
   Nb of regions in the mesh =            2

 ------
 Region            1
 IX from            1  to          180
 IZ from            1  to           60
 Material #            1  isotropic
 Material is solid
 vp     =    3400.00000
 vs     =    1963.00000
 rho    =    2500.00000
 Poisson's ratio =   0.249996528
 QKappa =    100.000000
 Qmu    =    100.000000
 ------
 Region            2
 IX from            1  to          180
 IZ from           61  to          120
 Material #            2  isotropic
 Material is fluid
 vp     =    1500.00000
 vs     =    0.00000000
 rho    =    1020.00000
 Poisson's ratio =   0.500000000
 QKappa =    9999.00000
 Qmu    =    9999.00000
 ------

 Parameter file successfully read


 Mesh from internal meshing:
   Total number of spectral elements         =        21600

 PML mesh elements:
   using internal mesh, PML elements will be determined in solver run...

 The mesh contains        21600  elements

 Control elements have            4  nodes

 Reading in SOURCE file...

 Source           1
   Position xs, zs =    0.0000000000000000        2500.0000000000000

   Source type (1=force, 2=moment tensor):            1
   Force source:
   Angle of the source (deg) =    0.0000000000000000

   Time function type (1=Ricker, 2=First derivative, 3=Gaussian, 4=Dirac, 5=Heaviside, 6,7=ocean type, 8=Read from file, 9=burst, 10=Sinusoidal, 11=Ormsby):           1
   Ricker wavelet (second-derivative):
   Frequency, delay =    10.000000000000000        0.0000000000000000
   Multiplying factor  =    10000000000.000000

 all sources are okay

 Normals to surface not needed

 Node coordinates:

 reading node coordinates from interfaces...

 Mesh surfaces:
   determining acoustic free surface...
   number of acoustic elements with free surface =            0

   determining absorbing boundary surfaces...
   number of elements with absorbing boundaries =          480

 Axisymmetric mesh:

 Axial elements:          120


 Mesh dimensions:
   Min and max value of X in the grid =    0.0000000000000000        6400.0000000000000
   Min and max value of Z in the grid =    0.0000000000000000        4800.0000000000009

 Mesh partitioning:
   decomposing mesh using NPROC =            4

 Graph construction:
   graph adjacency done


 ************ Computing elements load ************
 Number of elastic elements :           0
 Number of acoustic elements :        9625
 Number of viscoelastic elements :        9625
 Number of viscoacoustic elements :           0
 Number of elastic PML elements :           0
 Number of acoustic PML elements :        1175
 Number of viscoelastic PML elements :        1175
 Number of viscoacoustic PML elements :           0
 *************************************************


 Partitioning method: SCOTCH

 Coupled interfaces:
 nedges_coupled (acoustic/elastic)     =          180
   after iteration            1 repartitioning of all coupled elements done
 nedges_coupled (acoustic/poroelastic) =            0
 nedges_coupled (poroelastic/elastic)  =            0

 Local numbering:
   NPROC:            4
   number of elements:        21600

 decompose mesh all done

 Absorbing boundaries:
   nedge_bound   :          480
   nelemabs_merge:          480

 Saving databases:
   database file: ./OUTPUT_FILES/Database00000.bin
   slice            0  has number of spectral elements =        3176

   database file: ./OUTPUT_FILES/Database00001.bin
   slice            1  has number of spectral elements =        8584

   database file: ./OUTPUT_FILES/Database00002.bin
   slice            2  has number of spectral elements =        3142

   database file: ./OUTPUT_FILES/Database00003.bin
   slice            3  has number of spectral elements =        6698

   VTK mesh files:
   written file: ./OUTPUT_FILES//mesh_materials.vtk
   written file: ./OUTPUT_FILES//mesh_partition_number.vtk
   done

 creating STATIONS file...

 writing the ./DATA/STATIONS file


 There are            3  receivers

 Target positions (x,z) of the            3  receivers

 Receiver            1  =    0.0000000000000000        2500.0000000000000
 Receiver            2  =    2500.0000000000000        2500.0000000000000
 Receiver            3  =    2500.0000000000000        1500.0000000000000

 This will be a parallel simulation on            4  processor cores


running solver on 4 processors...


 **********************************************
 **** Specfem 2-D Solver - MPI version     ****
 **********************************************

 Running Git version of the code corresponding to undefined in the case of old tar ball builds
 dating undefined in the case of old tar ball builds

 There are            4  MPI processes
 Processes are numbered from 0 to            3

 There is a total of            4  slices


 NDIM =            2

 NGLLX =            5
 NGLLZ =            5

 using single precision for the calculations

 smallest and largest possible floating-point numbers are:    1.17549435E-38   3.40282347E+38

 Reading the parameter file...

 Title of the simulation: Axisymmetric simple simulation

 Axisymmetric simulation

 Parameter file successfully read

 Reading in SOURCE file...

 Source           1
   Position xs, zs =    0.0000000000000000        2500.0000000000000

   Source type (1=force, 2=moment tensor):            1
   Force source:
   Angle of the source (deg) =    0.0000000000000000

   Time function type (1=Ricker, 2=First derivative, 3=Gaussian, 4=Dirac, 5=Heaviside, 6,7=ocean type, 8=Read from file, 9=burst, 10=Sinusoidal, 11=Ormsby):           1
   Ricker wavelet (second-derivative):
   Frequency, delay =    10.000000000000000        0.0000000000000000
   Multiplying factor  =    10000000000.000000

 all sources are okay



 -------------------------------------------------------------------------------
 -------------------------------------------------------------------------------
 Program SPECFEM2D:
 -------------------------------------------------------------------------------
 -------------------------------------------------------------------------------
 Axisymmetric simple simulation
 -------------------------------------------------------------------------------
 -------------------------------------------------------------------------------
 D a t e : 11 - 11 - 2020                                 T i m e  : 09:58:55
 -------------------------------------------------------------------------------
 -------------------------------------------------------------------------------


 -----------------------------------------------------
 --- A x i s y m m e t r i c   S i m u l a t i o n ---
 -----------------------------------------------------


 C o n t r o l
 =============

     Number of spectral element control nodes. . .(npgeo) =    3314
     Number of space dimensions. . . . . . . . . . (NDIM) =       2


 C o n t r o l
 =============

     Display frequency . . . .(NSTEP_BETWEEN_OUTPUT_INFO) =    500
     Color display . . . . . . . . . . . . . . . (colors) =      1
      == 0     black and white display
      == 1     color display
     Numbered mesh . . . . . . . . . . . . . . .(numbers) =      0
      == 0     do not number the mesh
      == 1     number the mesh


 C o n t r o l
 =============

     Seismograms recording type . . . . . . .(seismotype) = 1
     Angle for first line of receivers. . . . .(anglerec) =   0.00


 C o n t r o l
 =============

     Read external initial field. . . . . .(initialfield) =      F
     Add Bielak conditions (add_Bielak_conditions_bottom) =      F
     Add Bielak conditions .(add_Bielak_conditions_right) =      F
     Add Bielak conditions . .(add_Bielak_conditions_top) =      F
     Add Bielak conditions. .(add_Bielak_conditions_left) =      F
     Attenuation in solid . . .(ATTENUATION_VISCOELASTIC) =      T
     Attenuation in fluid . . (ATTENUATION_VISCOACOUSTIC) =      F
     Save grid in ASCII file or not . (output_grid_ASCII) =      F
     Save a file with total energy or not.(OUTPUT_ENERGY) =      F


 C o n t r o l
 =============

     Vector display type . . . . . . . . .(imagetype_postscript) =      1
     Percentage of cut for vector plots. . . . . . . .(cutsnaps) =   1.00
     Subsampling of velocity model display. (subsamp_postscript) =      1


 I t e r a t i o n s
 ===================

     Number of time iterations . . . . .(NSTEP) =    4500
     Time step increment. . . . . . . . . .(DT) =   6.000000E-04
     Total simulation duration . . . . . (ttot) =   2.700000E+00


 reading mesh databases...


 -- Spectral Elements --


     Number of spectral elements . . . . . . . . .  (nspec) =  21600
     Number of control nodes per element . . . . . (ngnod) =      4
     Number of points in X-direction . . . . . . . (NGLLX) =      5
     Number of points in Y-direction . . . . . . . (NGLLZ) =      5
     Number of points per element. . . . . . (NGLLX*NGLLZ) =     25
     Number of points for display . . . . . . (pointsdisp) =      6
     Number of element material sets . . . . . . . (numat) =      2
     Number of acoustic forcing elements (nelem_acforcing) =      0
     Number of acoustic free surf (nelem_acoustic_surface) =      0


 M a t e r i a l   s e t s :   2 D  (p o r o) e l a s t i c i t y
 ======================================================

     Number of material sets . . . . . . (numat) =     2


     ----------------------------------------
     -- Elastic (solid) isotropic material --
     ----------------------------------------
     Material set number. . . . . . . . (jmat) =     1
     P-wave velocity. . . . . . . . . . . (cp) = 3.40000000E+03
     S-wave velocity. . . . . . . . . . . (cs) = 1.96300000E+03
     Mass density. . . . . . . . . . (density) = 2.50000000E+03
     Poisson's ratio. . . . . . . . .(poisson) = 2.49996529E-01
     First Lame parameter Lambda. . . (lambda) = 9.63315500E+09
     Second Lame parameter Mu. . . . . . .(mu) = 9.63342250E+09
     Bulk modulus Kappa . . . . . . . .(kappa) = 1.60554367E+10
     Young's modulus E. . . . . . . . .(young) = 2.40834894E+10
     QKappa_attenuation .  . . . . . .(QKappa) = 1.00000000E+02
     Qmu_attenuation . . . . . . . . . . (Qmu) = 1.00000000E+02


     -------------------------------
     -- Acoustic (fluid) material --
     -------------------------------
     Material set number. . . . . . . . (jmat) =     2
     P-wave velocity. . . . . . . . . . . (cp) = 1.50000000E+03
     Mass density. . . . . . . . . . (density) = 1.02000000E+03
     Bulk modulus Kappa . . . . . . . .(kappa) = 2.29500000E+09
     QKappa_attenuation. . . . . . . .(QKappa) = 9.99900000E+03
     Qmu_attenuation. . . . . . . . . . .(Qmu) = 9.99900000E+03


 reading absorbing boundary...
   number of absorbing elements =           98

   any absorbing boundary flag  =  T
   PML boundary flag            =  T
   Stacey boundary flag         =  F


 Absorbing boundaries:
   using PML boundary conditions

 Total number of elements on the axis :          120

 Setting up mesh

 Generating global mesh numbering (fast version)...

 Mesh numbering:
   Total number of elements:        21600

   Total number of acoustic elements           =        10800
   Total number of elastic/visco/poro elements =        10800

 Approximate total number of grid points in the mesh
 (with a few duplicates coming from MPI buffers):       348148

 Approximate number of acoustic degrees of freedom in the mesh:       174074
 Approximate number of elastic degrees of freedom in the mesh:       348148
   (there are 2 degrees of freedom per point for elastic elements)

 Approximate total number of degrees of freedom in the mesh
 (sum of the two values above):       522222

  (for simplicity viscoelastic or poroelastic elements, if any,
   are counted as elastic in the above three estimates;
   in reality they have more degrees of freedom)

 Mesh dimensions:
   Xmin,Xmax of the whole mesh =    0.0000000000000000        6400.0000000000000
   Zmin,Zmax of the whole mesh =    0.0000000000000000        4800.0000000000009


 setup material arrays
 Domains:
   total number of acoustic elements        =        10800
   total number of elastic elements         =        10800
   total number of poroelastic elements     =            0

 Setting up MPI communication arrays

   maximum number of MPI interfaces (for a single slice) =            3

   total MPI interface points:         2700

   checking acoustic interfaces:
   total number of global acoustic interface points:          482
   total number of global points assembled by acoustic MPI interfaces:         482
   interfaces okay

   main process:
   number of MPI interfaces in acoustic domain    =            0
   number of MPI interfaces in elastic domain     =            2
   number of MPI interfaces in poroelastic domain =            0

   number of outer elements  =          136
   number of inner elements  =         3040

   percentage of outer elements    4.28211212     %
   percentage of inner elements    95.7178879     %

   number of global nodes in outer elements  =         2725
   number of global nodes in inner elements  =        49181

   determining communication phases:
   elastic domains:
   total number of outer/inner elements =          548       10252
   total percentage of outer elements    5.07407379     %
   total percentage of inner elements    94.9259262     %

   acoustic domains:
   total number of outer/inner elements =          120       10680
   total percentage of outer elements    1.11111450     %
   total percentage of inner elements    98.8888855     %

 All mesh setup done successfully

 sources:
   Total number of sources:            1


   Setting parameters for source           1

     Source Type. . . . . . . . . . . . . . = Collocated Force
     X-position (meters). . . . . . . . . . =    0.0000000000E+00
     Y-position (meters). . . . . . . . . . =    2.5000000000E+03
     Fundamental frequency (Hz) . . . . . . =    1.0000000000E+01
     Time delay (s) . . . . . . . . . . . . =    0.0000000000E+00
     Multiplying factor . . . . . . . . . . =    1.0000000000E+10
     Angle from vertical direction (deg). . =    0.0000000000E+00


   Source:            1
     Onset time. . . . . . =  -0.12000000000000000
     Fundamental period. . =   0.10000000000000001
     Fundamental frequency =    10.000000000000000
     The onset time is ok

 Source:            1
 *******************************
  locating force source
 *******************************

 Force source:
             original x:    0.00000000
             original z:    2500.00000
 Closest estimate found:    0.00000000      m away
  in rank            1
  in element         2901
  in acoustic domain
  at xi,gamma coordinates =   -1.0000000000000000        0.0000000000000000


 end of force source detection


 receivers:

 Total number of receivers =            3


 ********************
  locating receivers
 ********************

 reading receiver information from the ./DATA/STATIONS file


 Station #            1     AA      S0001
             original x:    0.00000000
             original z:    2500.00000
 Closest estimate found:    0.00000000      m away
  in element         2901
  in rank            1
  at xi,gamma coordinates =   -1.0000000000000000        0.0000000000000000
 Distance from source:    0.00000000      m


 Station #            2     AA      S0002
             original x:    2500.00000
             original z:    2500.00000
 Closest estimate found:    0.00000000      m away
  in element         2971
  in rank            1
  at xi,gamma coordinates =  -0.37499999999998851        0.0000000000000000
 Distance from source:    2500.00000      m


 Station #            3     AA      S0003
             original x:    2500.00000
             original z:    1500.00000
 Closest estimate found:    0.00000000      m away
  in element          534
  in rank            1
  at xi,gamma coordinates =  -0.37499999999998851        0.0000000000000000
 Distance from source:    2692.58252      m


 end of receiver detection

 found a total of            3  receivers, this is okay


 preparing timerun...


 Preparing array allocations
   arrays for elastic domains
   arrays for acoustic domains
   wavefield initialization
   done initialization

 Preparing PML
   rotate PML activated   : F
   backward reconstruction: F
   total number of PML spectral elements:         2350

   number of points on acoustic abs in this slice =            0
   number of points on  elastic abs in this slice =          393

   defining PML coefficients:
     using mesh dimension : xmin/xmax =    0.00000000     /   6400.00000
                            zmin/zmax =    0.00000000     /   4800.00000
     thickness PML: left   =    0.00000000
                    right  =    177.777771
                    bottom =    200.000000
                    top    =    200.000000
     maximum dominant frequency (sources):    10.0000000
     PML coefficients all set


 Attenuation:
   viscoelastic  attenuation: T (shear & bulk attenuation in elastic domains)
   viscoacoustic attenuation: F (bulk attenuation in acoustic domains)

 Preparing attenuation in viscoelastic or viscoacoustic parts of the model:
   using external model for Qkappa and Qmu:  F
   reading velocity at f0                 :  F
   using an attenuation reference frequency of    10.000000000000000      Hz

   preparing attenuation within PML region

   done PML attenuation setup

 Preparing mass matrices
   initializing mass matrices
   inverting mass matrices

 Preparing image coloring

 Checking mesh and stability

 ********
 Model: P (or PI) velocity min,max =    1500.0000000000000        3400.0000000000000
 Model: S velocity min,max         =    1963.0000000000000        1963.0000000000000
 Model: density min,max            =    1020.0000000000000        2500.0000000000000
 ********


 *********************************************
 *** Verification of simulation parameters ***
 *********************************************

 *** Max grid size =    40.000000000000455
 *** Min grid size =    35.555555555554747
 *** Max/min ratio =    1.1250000000000384

 *** Minimum GLL point distance  =    6.1394902985247102
 *** Average GLL point distance  =    8.8888888888886868

 *** Minimum period resolved     =    3.3333333333333715E-002
 *** Maximum frequency resolved  =    29.999999999999655      Hz

 *** Maximum suggested time step                 =    9.0286622037128090E-004
 *** Maximum suggested (Ricker) source frequency =    11.999999999999863

 *** for DT :    6.00000028E-04
 *** Max CFL stability condition of the time scheme based on P wave velocity (must be below about 0.50 or so) =   0.33227515603127555

 ----
 Number of points per wavelength:
 ----
   Source            1
   maximum dominant source frequency =    25.000000000000000      Hz

   Nb pts / lambdaP_fmax min =    6.00000000
   Nb pts / lambdaP_fmax max =    13.6000004

   Nb pts / lambdaS_fmax min =    7.85200024
   Nb pts / lambdaS_fmax max =    7.85200024

 -----------------------------------------

 histogram of min number of points per S wavelength in solid regions:

 there are        10800  elements out of        21600  in solid regions
   (i.e.,    50.0000000     % of the total)

 (too small = poor resolution of calculations -
  too big = wasting memory and CPU time)
 (threshold value is around 4.5 points per S wavelength
  in elastic regions and 5.5 per P wavelength in fluid regions):

   7.77347994      -    7.78133202               0     0.00000000      %
   7.78133202      -    7.78918409               0     0.00000000      %
   7.78918409      -    7.79703617               0     0.00000000      %
   7.79703617      -    7.80488777               0     0.00000000      %
   7.80488777      -    7.81273985               0     0.00000000      %
   7.81273985      -    7.82059193               0     0.00000000      %
   7.82059193      -    7.82844400               0     0.00000000      %
   7.82844400      -    7.83629608               0     0.00000000      %
   7.83629608      -    7.84414816               0     0.00000000      %
   7.84414816      -    7.85200024             998     9.24074078      %
   7.85200024      -    7.85985184            9802     90.7592621      %
   7.85985184      -    7.86770391               0     0.00000000      %
   7.86770391      -    7.87555599               0     0.00000000      %
   7.87555599      -    7.88340807               0     0.00000000      %
   7.88340807      -    7.89126015               0     0.00000000      %
   7.89126015      -    7.89911222               0     0.00000000      %
   7.89911222      -    7.90696383               0     0.00000000      %
   7.90696383      -    7.91481590               0     0.00000000      %
   7.91481590      -    7.92266798               0     0.00000000      %
   7.92266798      -    7.93052006               0     0.00000000      %

 total percentage =    100.00000000000000       %

 -----------------------------------------

 histogram of min number of points per P wavelength in fluid regions:

 there are        10800  elements out of        21600  in fluid regions
   (i.e.,    50.0000000     % of the total)

 (too small = poor resolution of calculations -
  too big = wasting memory and CPU time)
 (threshold value is around 4.5 points per S wavelength
  in elastic regions and 5.5 per P wavelength in fluid regions):

   5.94000006      -    5.94600010               0     0.00000000      %
   5.94600010      -    5.95200014               0     0.00000000      %
   5.95200014      -    5.95800018               0     0.00000000      %
   5.95800018      -    5.96400023               0     0.00000000      %
   5.96400023      -    5.96999979               0     0.00000000      %
   5.96999979      -    5.97599983               0     0.00000000      %
   5.97599983      -    5.98199987               0     0.00000000      %
   5.98199987      -    5.98799992               0     0.00000000      %
   5.98799992      -    5.99399996               0     0.00000000      %
   5.99399996      -    6.00000000              72    0.666666687      %
   6.00000000      -    6.00600004           10728     99.3333359      %
   6.00600004      -    6.01200008               0     0.00000000      %
   6.01200008      -    6.01800013               0     0.00000000      %
   6.01800013      -    6.02400017               0     0.00000000      %
   6.02400017      -    6.03000021               0     0.00000000      %
   6.03000021      -    6.03599977               0     0.00000000      %
   6.03599977      -    6.04199982               0     0.00000000      %
   6.04199982      -    6.04799986               0     0.00000000      %
   6.04799986      -    6.05399990               0     0.00000000      %
   6.05399990      -    6.05999994               0     0.00000000      %

 total percentage =    100.00000000000000       %


 total number of elements in fluid and solid regions =        21600


 Preparing source time function
   time stepping scheme:   Newmark
   time stepping stages:            1
   time step size      :    6.00000028E-04

   number of time steps:         4500
   number of sources   :            1


 Preparing image coloring
   allocating color image arrays
   locating all the pixels of color images
   total number of image pixels =       480000
   done locating all the pixels of color images
   coloring image background based on vp

 done, preparation successful


 =========================================
 =  T i m e  e v o l u t i o n  l o o p  =
 =========================================


 Starting time iteration loop ...


 ******************************************************************
Time step number       5   t =    0.0024 s out of    4500
 ******************************************************************
 We have done    8.89086500E-02 % of the total
 Max norm of vector field in solid (elastic) =    0.00000000
 Max absolute value of scalar field in fluid (acoustic) =    7.05489144E-03
 Elapsed time in seconds =    8.4000110626220703E-002
 Elapsed time in hh:mm:ss =      0 h 00 m 00 s
 Mean elapsed time per time step in seconds =    1.6800022125244139E-002
 Time steps remaining =         4495
 Estimated remaining time in seconds =    75.516099452972412
 Estimated remaining time in hh:mm:ss =      0 h 01 m 15 s
 Estimated total run time in seconds =    75.600099563598633
 Estimated total run time in hh:mm:ss =      0 h 01 m 15 s
 The run will finish approximately on: Wed Nov 11, 2020 10:00

 Creating color image of size          800  x          631  for time step            5
 drawing scalar image of the forward wavefield displacement...
 Color image maximum amplitude =    1.4761795910089859E-006
 Color image created

 Creating color image of size          800  x          631  for time step          100
 drawing scalar image of the forward wavefield displacement...
 Color image maximum amplitude =    1.9975777715444565E-002
 Color image created

 Creating color image of size          800  x          631  for time step          200
 drawing scalar image of the forward wavefield displacement...
 Color image maximum amplitude =   0.13451236486434937
 Color image created

 Creating color image of size          800  x          631  for time step          300
 drawing scalar image of the forward wavefield displacement...
 Color image maximum amplitude =    2.2399330511689186E-002
 Color image created

 Creating color image of size          800  x          631  for time step          400
 drawing scalar image of the forward wavefield displacement...
 Color image maximum amplitude =    5.5765861179679632E-004
 Color image created


 ******************************************************************
Time step number     500   t =    0.2994 s out of    4500
 ******************************************************************
 We have done    11.0913534     % of the total
 Max norm of vector field in solid (elastic) =    2.66578660E-04
 Max absolute value of scalar field in fluid (acoustic) =    8.86419201
 Elapsed time in seconds =    10.078999996185303
 Elapsed time in hh:mm:ss =      0 h 00 m 10 s
 Mean elapsed time per time step in seconds =    2.0157999992370605E-002
 Time steps remaining =         4000
 Estimated remaining time in seconds =    80.631999969482422
 Estimated remaining time in hh:mm:ss =      0 h 01 m 20 s
 Estimated total run time in seconds =    90.710999965667725
 Estimated total run time in hh:mm:ss =      0 h 01 m 30 s
 The run will finish approximately on: Wed Nov 11, 2020 10:00

 Creating color image of size          800  x          631  for time step          500
 drawing scalar image of the forward wavefield displacement...
 Color image maximum amplitude =    3.5124819260090590E-004
 Color image created

 Creating color image of size          800  x          631  for time step          600
 drawing scalar image of the forward wavefield displacement...
 Color image maximum amplitude =    2.6246241759508848E-004
 Color image created

 Creating color image of size          800  x          631  for time step          700
 drawing scalar image of the forward wavefield displacement...
 Color image maximum amplitude =    2.0262350153643638E-004
 Color image created

 Creating color image of size          800  x          631  for time step          800
 drawing scalar image of the forward wavefield displacement...
 Color image maximum amplitude =    1.7090061737690121E-004
 Color image created

 Creating color image of size          800  x          631  for time step          900
 drawing scalar image of the forward wavefield displacement...
 Color image maximum amplitude =    1.4369182463269681E-004
 Color image created


 ******************************************************************
Time step number    1000   t =    0.5994 s out of    4500
 ******************************************************************
 We have done    22.2049351     % of the total
 Max norm of vector field in solid (elastic) =    6.52067683E-05
 Max absolute value of scalar field in fluid (acoustic) =    4.92271709
 Elapsed time in seconds =    19.786999940872192
 Elapsed time in hh:mm:ss =      0 h 00 m 19 s
 Mean elapsed time per time step in seconds =    1.9786999940872192E-002
 Time steps remaining =         3500
 Estimated remaining time in seconds =    69.254499793052673
 Estimated remaining time in hh:mm:ss =      0 h 01 m 09 s
 Estimated total run time in seconds =    89.041499733924866
 Estimated total run time in hh:mm:ss =      0 h 01 m 29 s
 The run will finish approximately on: Wed Nov 11, 2020 10:00


 Total number of time steps done:         1000
 Writing the seismograms by main proc alone took    1.53970001E-02  seconds

 Creating color image of size          800  x          631  for time step         1000
 drawing scalar image of the forward wavefield displacement...
 Color image maximum amplitude =    1.2743844126816839E-004
 Color image created

 Creating color image of size          800  x          631  for time step         1100
 drawing scalar image of the forward wavefield displacement...
 Color image maximum amplitude =    1.1143284791614860E-004
 Color image created

 Creating color image of size          800  x          631  for time step         1200
 drawing scalar image of the forward wavefield displacement...
 Color image maximum amplitude =    1.0151290916837752E-004
 Color image created

 Creating color image of size          800  x          631  for time step         1300
 drawing scalar image of the forward wavefield displacement...
 Color image maximum amplitude =    9.1151756350882351E-005
 Color image created

 Creating color image of size          800  x          631  for time step         1400
 drawing scalar image of the forward wavefield displacement...
 Color image maximum amplitude =    8.4195417002774775E-005
 Color image created


 ******************************************************************
Time step number    1500   t =    0.8994 s out of    4500
 ******************************************************************
 We have done    33.3185158     % of the total
 Max norm of vector field in solid (elastic) =    3.77768083E-05
 Max absolute value of scalar field in fluid (acoustic) =    3.09750199
 Elapsed time in seconds =    29.635999917984009
 Elapsed time in hh:mm:ss =      0 h 00 m 29 s
 Mean elapsed time per time step in seconds =    1.9757333278656006E-002
 Time steps remaining =         3000
 Estimated remaining time in seconds =    59.271999835968018
 Estimated remaining time in hh:mm:ss =      0 h 00 m 59 s
 Estimated total run time in seconds =    88.907999753952026
 Estimated total run time in hh:mm:ss =      0 h 01 m 28 s
 The run will finish approximately on: Wed Nov 11, 2020 10:00

 Creating color image of size          800  x          631  for time step         1500
 drawing scalar image of the forward wavefield displacement...
 Color image maximum amplitude =    7.6845244620926678E-005
 Color image created

 Creating color image of size          800  x          631  for time step         1600
 drawing scalar image of the forward wavefield displacement...
 Color image maximum amplitude =    7.2245537012349814E-005
 Color image created

 Creating color image of size          800  x          631  for time step         1700
 drawing scalar image of the forward wavefield displacement...
 Color image maximum amplitude =    6.6835462348535657E-005
 Color image created

 Creating color image of size          800  x          631  for time step         1800
 drawing scalar image of the forward wavefield displacement...
 Color image maximum amplitude =    6.2881576013751328E-005
 Color image created

 Creating color image of size          800  x          631  for time step         1900
 drawing scalar image of the forward wavefield displacement...
 Color image maximum amplitude =    5.8722875110106543E-005
 Color image created


 ******************************************************************
Time step number    2000   t =    1.1994 s out of    4500
 ******************************************************************
 We have done    44.4320946     % of the total
 Max norm of vector field in solid (elastic) =    3.26433219E-05
 Max absolute value of scalar field in fluid (acoustic) =    2.53018117
 Elapsed time in seconds =    39.690999984741211
 Elapsed time in hh:mm:ss =      0 h 00 m 39 s
 Mean elapsed time per time step in seconds =    1.9845499992370605E-002
 Time steps remaining =         2500
 Estimated remaining time in seconds =    49.613749980926514
 Estimated remaining time in hh:mm:ss =      0 h 00 m 49 s
 Estimated total run time in seconds =    89.304749965667725
 Estimated total run time in hh:mm:ss =      0 h 01 m 29 s
 The run will finish approximately on: Wed Nov 11, 2020 10:00


 Total number of time steps done:         2000
 Writing the seismograms by main proc alone took    1.64340008E-02  seconds

 Creating color image of size          800  x          631  for time step         2000
 drawing scalar image of the forward wavefield displacement...
 Color image maximum amplitude =    5.6078835768857971E-005
 Color image created

 Creating color image of size          800  x          631  for time step         2100
 drawing scalar image of the forward wavefield displacement...
 Color image maximum amplitude =    5.2712584874825552E-005
 Color image created

 Creating color image of size          800  x          631  for time step         2200
 drawing scalar image of the forward wavefield displacement...
 Color image maximum amplitude =    5.0185492000309750E-005
 Color image created

 Creating color image of size          800  x          631  for time step         2300
 drawing scalar image of the forward wavefield displacement...
 Color image maximum amplitude =    4.7470148274442181E-005
 Color image created

 Creating color image of size          800  x          631  for time step         2400
 drawing scalar image of the forward wavefield displacement...
 Color image maximum amplitude =    4.5827146095689386E-005
 Color image created


 ******************************************************************
Time step number    2500   t =    1.4994 s out of    4500
 ******************************************************************
 We have done    55.5456772     % of the total
 Max norm of vector field in solid (elastic) =    2.83097615E-05
 Max absolute value of scalar field in fluid (acoustic) =    2.19950104
 Elapsed time in seconds =    50.248000144958496
 Elapsed time in hh:mm:ss =      0 h 00 m 50 s
 Mean elapsed time per time step in seconds =    2.0099200057983397E-002
 Time steps remaining =         2000
 Estimated remaining time in seconds =    40.198400115966791
 Estimated remaining time in hh:mm:ss =      0 h 00 m 40 s
 Estimated total run time in seconds =    90.446400260925287
 Estimated total run time in hh:mm:ss =      0 h 01 m 30 s
 The run will finish approximately on: Wed Nov 11, 2020 10:00

 Creating color image of size          800  x          631  for time step         2500
 drawing scalar image of the forward wavefield displacement...
 Color image maximum amplitude =    4.3564628867898136E-005
 Color image created

 Creating color image of size          800  x          631  for time step         2600
 drawing scalar image of the forward wavefield displacement...
 Color image maximum amplitude =    4.0872859244700521E-005
 Color image created

 Creating color image of size          800  x          631  for time step         2700
 drawing scalar image of the forward wavefield displacement...
 Color image maximum amplitude =    3.7600100768031552E-005
 Color image created

 Creating color image of size          800  x          631  for time step         2800
 drawing scalar image of the forward wavefield displacement...
 Color image maximum amplitude =    3.4808519558282569E-005
 Color image created

 Creating color image of size          800  x          631  for time step         2900
 drawing scalar image of the forward wavefield displacement...
 Color image maximum amplitude =    3.3146170608233660E-005
 Color image created


 ******************************************************************
Time step number    3000   t =    1.7994 s out of    4500
 ******************************************************************
 We have done    66.6592560     % of the total
 Max norm of vector field in solid (elastic) =    2.48972283E-05
 Max absolute value of scalar field in fluid (acoustic) =    1.94019878
 Elapsed time in seconds =    60.769000053405762
 Elapsed time in hh:mm:ss =      0 h 01 m 00 s
 Mean elapsed time per time step in seconds =    2.0256333351135254E-002
 Time steps remaining =         1500
 Estimated remaining time in seconds =    30.384500026702881
 Estimated remaining time in hh:mm:ss =      0 h 00 m 30 s
 Estimated total run time in seconds =    91.153500080108643
 Estimated total run time in hh:mm:ss =      0 h 01 m 31 s
 The run will finish approximately on: Wed Nov 11, 2020 10:00


 Total number of time steps done:         3000
 Writing the seismograms by main proc alone took    1.76660009E-02  seconds

 Creating color image of size          800  x          631  for time step         3000
 drawing scalar image of the forward wavefield displacement...
 Color image maximum amplitude =    3.1912943086354062E-005
 Color image created

 Creating color image of size          800  x          631  for time step         3100
 drawing scalar image of the forward wavefield displacement...
 Color image maximum amplitude =    3.0724051612196490E-005
 Color image created

 Creating color image of size          800  x          631  for time step         3200
 drawing scalar image of the forward wavefield displacement...
 Color image maximum amplitude =    2.9468719731085002E-005
 Color image created

 Creating color image of size          800  x          631  for time step         3300
 drawing scalar image of the forward wavefield displacement...
 Color image maximum amplitude =    2.8304666557232849E-005
 Color image created

 Creating color image of size          800  x          631  for time step         3400
 drawing scalar image of the forward wavefield displacement...
 Color image maximum amplitude =    2.7312140446156263E-005
 Color image created


 ******************************************************************
Time step number    3500   t =    2.0994 s out of    4500
 ******************************************************************
 We have done    77.7728348     % of the total
 Max norm of vector field in solid (elastic) =    2.22009476E-05
 Max absolute value of scalar field in fluid (acoustic) =    1.73275530
 Elapsed time in seconds =    71.200000047683716
 Elapsed time in hh:mm:ss =      0 h 01 m 11 s
 Mean elapsed time per time step in seconds =    2.0342857156481063E-002
 Time steps remaining =         1000
 Estimated remaining time in seconds =    20.342857156481063
 Estimated remaining time in hh:mm:ss =      0 h 00 m 20 s
 Estimated total run time in seconds =    91.542857204164775
 Estimated total run time in hh:mm:ss =      0 h 01 m 31 s
 The run will finish approximately on: Wed Nov 11, 2020 10:00

 Creating color image of size          800  x          631  for time step         3500
 drawing scalar image of the forward wavefield displacement...
 Color image maximum amplitude =    2.6377740141469985E-005
 Color image created

 Creating color image of size          800  x          631  for time step         3600
 drawing scalar image of the forward wavefield displacement...
 Color image maximum amplitude =    2.5417941287741996E-005
 Color image created

 Creating color image of size          800  x          631  for time step         3700
 drawing scalar image of the forward wavefield displacement...
 Color image maximum amplitude =    2.4526067136321217E-005
 Color image created

 Creating color image of size          800  x          631  for time step         3800
 drawing scalar image of the forward wavefield displacement...
 Color image maximum amplitude =    2.3595124730491079E-005
 Color image created

 Creating color image of size          800  x          631  for time step         3900
 drawing scalar image of the forward wavefield displacement...
 Color image maximum amplitude =    2.2875090508023277E-005
 Color image created


 ******************************************************************
Time step number    4000   t =    2.3994 s out of    4500
 ******************************************************************
 We have done    88.8864212     % of the total
 Max norm of vector field in solid (elastic) =    2.00018603E-05
 Max absolute value of scalar field in fluid (acoustic) =    1.56184387
 Elapsed time in seconds =    81.901999950408936
 Elapsed time in hh:mm:ss =      0 h 01 m 21 s
 Mean elapsed time per time step in seconds =    2.0475499987602234E-002
 Time steps remaining =          500
 Estimated remaining time in seconds =    10.237749993801117
 Estimated remaining time in hh:mm:ss =      0 h 00 m 10 s
 Estimated total run time in seconds =    92.139749944210052
 Estimated total run time in hh:mm:ss =      0 h 01 m 32 s
 The run will finish approximately on: Wed Nov 11, 2020 10:00


 Total number of time steps done:         4000
 Writing the seismograms by main proc alone took    1.82670001E-02  seconds

 Creating color image of size          800  x          631  for time step         4000
 drawing scalar image of the forward wavefield displacement...
 Color image maximum amplitude =    2.2137706764624454E-005
 Color image created

 Creating color image of size          800  x          631  for time step         4100
 drawing scalar image of the forward wavefield displacement...
 Color image maximum amplitude =    2.1324814952095039E-005
 Color image created

 Creating color image of size          800  x          631  for time step         4200
 drawing scalar image of the forward wavefield displacement...
 Color image maximum amplitude =    2.0741988919326104E-005
 Color image created

 Creating color image of size          800  x          631  for time step         4300
 drawing scalar image of the forward wavefield displacement...
 Color image maximum amplitude =    2.0070499886060134E-005
 Color image created

 Creating color image of size          800  x          631  for time step         4400
 drawing scalar image of the forward wavefield displacement...
 Color image maximum amplitude =    1.9424551283009350E-005
 Color image created


 ******************************************************************
Time step number    4500   t =    2.6994 s out of    4500
 ******************************************************************
 We have done    100.000000     % of the total
 Max norm of vector field in solid (elastic) =    1.81491905E-05
 Max absolute value of scalar field in fluid (acoustic) =    1.41758633
 Elapsed time in seconds =    93.199000120162964
 Elapsed time in hh:mm:ss =      0 h 01 m 33 s
 Mean elapsed time per time step in seconds =    2.0710888915591769E-002
 Time steps remaining =            0
 Estimated remaining time in seconds =    0.0000000000000000
 Estimated remaining time in hh:mm:ss =      0 h 00 m 00 s
 Estimated total run time in seconds =    93.199000120162964
 Estimated total run time in hh:mm:ss =      0 h 01 m 33 s


 Total number of time steps done:         4500
 Writing the seismograms by main proc alone took    9.10199992E-03  seconds

 Creating color image of size          800  x          631  for time step         4500
 drawing scalar image of the forward wavefield displacement...
 Color image maximum amplitude =    1.8893682863563299E-005
 Color image created


 Total duration of the time loop in seconds =    93.2462997      s
 Total number of time steps =         4500
 Average duration of a time step of the time loop =    2.07214002E-02  s
 Total number of spectral elements in the mesh =         3176
     of which         2686  are regular elements
     and          490  are PML elements.
 Average duration of the calculation per spectral element =    6.52437029E-06  s


 Total duration of the timeloop in seconds, measured using
 date and time of the system :    93.2470016      s


 -------------------------------------------------------------------------------
 -------------------------------------------------------------------------------
 Program SPECFEM2D:
 -------------------------------------------------------------------------------
 -------------------------------------------------------------------------------
 Axisymmetric simple simulation
 -------------------------------------------------------------------------------
 -------------------------------------------------------------------------------
 D a t e : 11 - 11 - 2020                                 T i m e  : 10:00:28
 -------------------------------------------------------------------------------
 -------------------------------------------------------------------------------

see results in directory: OUTPUT_FILES/

done
Wed Nov 11 10:00:28 +03 2020
