running example: Fri May 12 10:24:57 AST 2017

setting up example...


running mesher on 16 processors...


 **********************************************
 *** Specfem 2-D Mesher - MPI version       ***
 **********************************************

 Reading the parameter file...

 Title of the simulation: Axisymmetric simple simulation

 Axisymmetric simulation

 Receiver lines:
   Nb of line sets =            3

 Materials:
   Nb of solid, fluid or porous materials =            2

 --------
 Material #           1  isotropic
 rho,cp,cs   =    2500.0000000000000        3400.0000000000000        1963.0000000000000     
 Qkappa, Qmu =    100.00000000000000        100.00000000000000     
 Material is solid
 --------
 Material #           2  isotropic
 rho,cp,cs   =    1020.0000000000000        1500.0000000000000        0.0000000000000000     
 Qkappa, Qmu =    9999.0000000000000        9999.0000000000000     
 Material is fluid
 --------

 Mesh from internal meshing:

 Reading interface data from file: ./DATA/./interfaces_axisym.dat                                                                                                                                                                                                                                                                                                                                                                                                                                                                                                  
 Reading            2  points for interface            1
 Reading            2  points for interface            2
 Reading            2  points for interface            3

 Total number of layers in z direction =            2
 There are           60  spectral elements along Z in layer            1
 There are           60  spectral elements along Z in layer            2

 Total number of spectral elements along X =          180
 Total number of spectral elements along Z =          120

 Regions:
   Nb of regions in the mesh =            2

 ------
 Region            1
 IX from            1  to          180
 IZ from            1  to           60
 Material #            1  isotropic
 Material is solid
 vp     =    3400.00000    
 vs     =    1963.00000    
 rho    =    2500.00000    
 Poisson's ratio =   0.249996528    
 QKappa =    100.000000    
 Qmu    =    100.000000    
 ------
 Region            2
 IX from            1  to          180
 IZ from           61  to          120
 Material #            2  isotropic
 Material is fluid
 vp     =    1500.00000    
 vs     =    0.00000000    
 rho    =    1020.00000    
 Poisson's ratio =   0.500000000    
 QKappa =    9999.00000    
 Qmu    =    9999.00000    
 ------
 Total number of spectral elements         =        21600


 Parameter file successfully read 

 The mesh contains        21600  elements

 Control elements have            4  nodes

 Source           1
   Position xs, zs =    0.0000000000000000        2500.0000000000000     

   Source type (1=force, 2=moment tensor, 3=Rayleigh wave, 4=plane incident P, 5=plane incident S):            1
   Force source:
   Angle of the source (deg) =    0.0000000000000000     
   Multiplying factor  =    10000000000.000000     

   Time function type (1=Ricker, 2=First derivative, 3=Gaussian, 4=Dirac, 5=Heaviside, 8=Read from file, 9=burst):           1
   Ricker wavelet (second-derivative):
   Frequency, delay =    10.000000000000000        0.0000000000000000     

 Reading interface data from file: ./DATA/./interfaces_axisym.dat

 Axial elements:          120


 Mesh dimensions: 
   Min and max value of X in the grid =    0.0000000000000000        6400.0000000000000     
   Min and max value of Z in the grid =    0.0000000000000000        4800.0000000000009     


 ************ Computing elements load ************
 Number of elastic elements :           0
 Number of acoustic elements :        9625
 Number of viscoelastic elements :        9625
 Number of elastic PML elements :           0
 Number of acoustic PML elements :        1175
 Number of viscoelastic PML elements :        1175
 *************************************************


 Partitioning method: SCOTCH

 nedges_coupled (acoustic/elastic)     =          180
   after iteration            2 repartitioning of all coupled elements done
 nedges_coupled (acoustic/poroelastic) =            0
 nedges_coupled (poroelastic/elastic)  =            0

 slice            0  has number of spectral elements =        3182
 slice            1  has number of spectral elements =        1293
 slice            2  has number of spectral elements =        2908
 slice            3  has number of spectral elements =        3346
 slice            4  has number of spectral elements =        1353
 slice            5  has number of spectral elements =        1342
 slice            6  has number of spectral elements =         868
 slice            7  has number of spectral elements =         642
 slice            8  has number of spectral elements =        1256
 slice            9  has number of spectral elements =         651
 slice           10  has number of spectral elements =         716
 slice           11  has number of spectral elements =         513
 slice           12  has number of spectral elements =         950
 slice           13  has number of spectral elements =         591
 slice           14  has number of spectral elements =        1284
 slice           15  has number of spectral elements =         705

 Position (x,z) of the source =    0.0000000000000000        2500.0000000000000     


 writing the ./DATA/STATIONS file


 There are            3  receivers

 Target positions (x,z) of the            3  receivers

 Receiver            1  =    0.0000000000000000        2500.0000000000000     
 Receiver            2  =    2500.0000000000000        2500.0000000000000     
 Receiver            3  =    2500.0000000000000        1500.0000000000000     

 This will be a parallel simulation on           16  processor cores


running solver on 16 processors...


 **********************************************
 **** Specfem 2-D Solver - MPI version     ****
 **********************************************

 There are           16  MPI processes
 Processes are numbered from 0 to           15

 There is a total of           16  slices

 NDIM =            2

 NGLLX =            5
 NGLLZ =            5

 using single precision for the calculations

 smallest and largest possible floating-point numbers are:    1.17549435E-38   3.40282347E+38


 -------------------------------------------------------------------------------
 -------------------------------------------------------------------------------
 Program SPECFEM2D: 
 -------------------------------------------------------------------------------
 -------------------------------------------------------------------------------
 Axisymmetric simple simulation
 -------------------------------------------------------------------------------
 -------------------------------------------------------------------------------
 D a t e : 12 - 05 - 2017                                 T i m e  : 10:24:58
 -------------------------------------------------------------------------------
 -------------------------------------------------------------------------------


 -----------------------------------------------------
 --- A x i s y m m e t r i c   S i m u l a t i o n ---
 -----------------------------------------------------


 C o n t r o l
 =============

     Number of spectral element control nodes. . .(npgeo) =    3297
     Number of space dimensions. . . . . . . . . . (NDIM) =       2


 C o n t r o l
 =============

     Display frequency . . . .(NSTEP_BETWEEN_OUTPUT_INFO) =    500
     Color display . . . . . . . . . . . . . . . (colors) =      1
      == 0     black and white display              
      == 1     color display                        
     Numbered mesh . . . . . . . . . . . . . . .(numbers) =      0
      == 0     do not number the mesh               
      == 1     number the mesh                      


 C o n t r o l
 =============

     Seismograms recording type . . . . . . .(seismotype) =      1
     Angle for first line of receivers. . . . .(anglerec) =   0.00


 C o n t r o l
 =============

     Read external initial field. . . . . .(initialfield) =      F
     Add Bielak conditions (add_Bielak_conditions_bottom) =      F
     Add Bielak conditions .(add_Bielak_conditions_right) =      F
     Add Bielak conditions . .(add_Bielak_conditions_top) =      F
     Add Bielak conditions. .(add_Bielak_conditions_left) =      F
     Attenuation on/off . . . .(ATTENUATION_VISCOELASTIC) =      T
     Save grid in ASCII file or not . (output_grid_ASCII) =      F
     Save a file with total energy or not.(OUTPUT_ENERGY) =      F


 C o n t r o l
 =============

     Vector display type . . . . . . . . .(imagetype_postscript) =      1
     Percentage of cut for vector plots. . . . . . . .(cutsnaps) =   1.00
     Subsampling of velocity model display. (subsamp_postscript) =      1


 I t e r a t i o n s 
 ===================

     Number of time iterations . . . . .(NSTEP) =    4500
     Time step increment. . . . . . . . . .(DT) =   6.000000E-04
     Total simulation duration . . . . . (ttot) =   2.700000E+00


     Source Type. . . . . . . . . . . . . . = Collocated Force
     X-position (meters). . . . . . . . . . =    0.0000000000E+00
     Y-position (meters). . . . . . . . . . =    2.5000000000E+03
     Fundamental frequency (Hz) . . . . . . =    1.0000000000E+01
     Time delay (s) . . . . . . . . . . . . =    0.0000000000E+00
     Multiplying factor . . . . . . . . . . =    1.0000000000E+10
     Angle from vertical direction (deg). . =    0.0000000000E+00

     Onset time. . . . . . =  -0.12000000000000000     
     Fundamental period. . =   0.10000000000000001     
     Fundamental frequency =    10.000000000000000     
     The onset time is ok

     -- Spectral Elements --


     Number of spectral elements . . . . . . . . .  (nspec) =  21600
     Number of control nodes per element . . . . . (ngnod) =      4
     Number of points in X-direction . . . . . . . (NGLLX) =      5
     Number of points in Y-direction . . . . . . . (NGLLZ) =      5
     Number of points per element. . . . . . (NGLLX*NGLLZ) =     25
     Number of points for display . . . . . . (pointsdisp) =      6
     Number of element material sets . . . . . . . (numat) =      2
     Number of acoustic forcing elements (nelem_acforcing) =      0
     Number of acoustic free surf (nelem_acoustic_surface) =      0


 M a t e r i a l   s e t s :   2 D  (p o r o) e l a s t i c i t y
 ======================================================

     Number of material sets . . . . . . (numat) =     2


     ----------------------------------------
     -- Elastic (solid) isotropic material --
     ----------------------------------------
     Material set number. . . . . . . . (jmat) =     1
     P-wave velocity. . . . . . . . . . . (cp) = 3.40000000E+03
     S-wave velocity. . . . . . . . . . . (cs) = 1.96300000E+03
     Mass density. . . . . . . . . . (density) = 2.50000000E+03
     Poisson's ratio. . . . . . . . .(poisson) = 2.49996529E-01
     First Lame parameter Lambda. . . (lambda) = 9.63315500E+09
     Second Lame parameter Mu. . . . . . .(mu) = 9.63342250E+09
     Bulk modulus Kappa . . . . . . . .(kappa) = 1.60554367E+10
     Young's modulus E. . . . . . . . .(young) = 2.40834894E+10
     QKappa_attenuation .  . . . . . .(QKappa) = 1.00000000E+02
     Qmu_attenuation . . . . . . . . . . (Qmu) = 1.00000000E+02


     -------------------------------
     -- Acoustic (fluid) material --
     -------------------------------
     Material set number. . . . . . . . (jmat) =     2
     P-wave velocity. . . . . . . . . . . (cp) = 1.50000000E+03
     Mass density. . . . . . . . . . (density) = 1.02000000E+03
     Bulk modulus Kappa . . . . . . . .(kappa) = 2.29500000E+09
     QKappa_attenuation. . . . . . . .(QKappa) = 9.99900000E+03
     Qmu_attenuation. . . . . . . . . . .(Qmu) = 9.99900000E+03

 Absorbing boundaries:
   using PML boundary conditions

 Total number of elements on the axis :          120

 Setting up mesh

 Generating global mesh numbering (fast version)...

 Mesh numbering:
   Total number of elements:        21600

   Total number of acoustic elements           =        10800
   Total number of elastic/visco/poro elements =        10800

 Approximate total number of grid points in the mesh
 (with a few duplicates coming from MPI buffers):       350600

 Approximate number of acoustic degrees of freedom in the mesh:       175300
 Approximate number of elastic degrees of freedom in the mesh:       350600
   (there are 2 degrees of freedom per point for elastic elements)

 Approximate total number of degrees of freedom in the mesh
 (sum of the two values above):       525900

  (for simplicity viscoelastic or poroelastic elements, if any,
   are counted as elastic in the above three estimates;
   in reality they have more degrees of freedom)

 Mesh dimensions:
   Xmin,Xmax of the whole mesh =    0.0000000000000000        6400.0000000000000     
   Zmin,Zmax of the whole mesh =    0.0000000000000000        4800.0000000000009     

 Domains:
   total number of acoustic elements        =        10800
   total number of elastic elements         =        10800
   total number of poroelastic elements     =            0
   total number of gravitoacoustic elements =            0

 Mixed acoustic/elastic simulation

   Beginning of fluid/solid edge detection
   Checking fluid/solid edge topology...
   End of fluid/solid edge detection

 excluding common points between acoustic absorbing edges and acoustic/elastic matching interfaces, if any

 Setting up MPI communication arrays

   maximum number of MPI interfaces (for a single slice) =            7

   total MPI interface points:         7644

   checking acoustic interfaces:
   total number of global acoustic interface points:         2490
   total number of global points assembled by acoustic MPI interfaces:        2490
   interfaces okay

   master process:
   number of MPI interfaces in acoustic domain    =            3
   number of MPI interfaces in elastic domain     =            3
   number of MPI interfaces in poroelastic domain =            0

   number of outer elements  =          173
   number of inner elements  =         3009

   percentage of outer elements    5.43682861     %
   percentage of inner elements    94.5631714     %

   number of global nodes in outer elements  =         3465
   number of global nodes in inner elements  =        48589

   determining communication phases:
   elastic domains:
   total number of outer/inner elements =         1244        9556
   total percentage of outer elements    11.5185165     %
   total percentage of inner elements    88.4814835     %

   acoustic domains:
   total number of outer/inner elements =          612       10188
   total percentage of outer elements    5.66666412     %
   total percentage of inner elements    94.3333359     %

 All mesh setup done successfully

 sources:

 *******************************
  locating force source
 *******************************


 Force source:
             original x:    0.00000000    
             original z:    2500.00000    
 closest estimate found:    0.00000000      m away
  in rank            4
  in element         1270
  in acoustic domain
  at xi,gamma coordinates =   -1.0000000000000000        0.0000000000000000     


 end of force source detection


 receivers:

 Total number of receivers =            3


 ********************
  locating receivers
 ********************

 reading receiver information from the ./DATA/STATIONS file


 Station #            1     AA      S0001                           
             original x:    0.00000000    
             original z:    2500.00000    
   distance from source:    0.00000000    
 closest estimate found:    0.00000000      m away
  in element         1270
  in rank            4
  at xi,gamma coordinates =   -1.0000000000000000        0.0000000000000000     


 Station #            2     AA      S0002                           
             original x:    2500.00000    
             original z:    2500.00000    
   distance from source:    2500.00000    
 closest estimate found:    0.00000000      m away
  in element          303
  in rank            2
  at xi,gamma coordinates =  -0.37499999999998851        0.0000000000000000     


 Station #            3     AA      S0003                           
             original x:    2500.00000    
             original z:    1500.00000    
   distance from source:    2692.58252    
 closest estimate found:    0.00000000      m away
  in element          876
  in rank           12
  at xi,gamma coordinates =  -0.37499999999998851        0.0000000000000000     


 end of receiver detection

 found a total of            3  receivers, this is okay


 Preparing array allocations
   arrays for elastic domains
   arrays for acoustic domains
   wavefield initialization
   done initialization

 Preparing PML
 Total number of PML spectral elements:         2350


 Preparing mass matrices
   initializing mass matrices
   inverting mass matrices

 Preparing image coloring

 Checking mesh and stability

 ********
 Model: P (or PI) velocity min,max =    1500.0000000000000        3400.0000000000000     
 Model: S velocity min,max         =    1963.0000000000000        1963.0000000000000     
 Model: density min,max            =    1020.0000000000000        2500.0000000000000     
 ********


 *********************************************
 *** Verification of simulation parameters ***
 *********************************************

 *** Max grid size =    40.000000000000455     
 *** Min grid size =    35.555555555554747     
 *** Max/min ratio =    1.1250000000000384     

 *** Minimum GLL point distance  =    6.1394902985247102     
 *** Average GLL point distance  =    8.8888888888886868     

 *** Minimum period resolved     =    3.3333333333333715E-002
 *** Maximum frequency resolved  =    29.999999999999655      Hz

 *** Maximum suggested time step                 =    9.0286622037128090E-004
 *** Maximum suggested (Ricker) source frequency =    11.999999999999863     

 *** for DT :    5.9999999999999995E-004
 *** Max CFL stability condition of the time scheme based on P wave velocity (must be below about 0.50 or so) =   0.33227514024905330     

 ----
 Number of points per wavelength:
 ----
   Source            1
   maximum dominant source frequency =    25.000000000000000      Hz

   Nb pts / lambdaP_fmax min =    6.00000000    
   Nb pts / lambdaP_fmax max =    13.6000004    

   Nb pts / lambdaS_fmax min =    7.85200024    
   Nb pts / lambdaS_fmax max =    7.85200024    

 -----------------------------------------

 histogram of min number of points per S wavelength in solid regions:

 there are        10800  elements out of        21600  in solid regions
   (i.e.,    50.0000000     % of the total)

 (too small = poor resolution of calculations -
  too big = wasting memory and CPU time)
 (threshold value is around 4.5 points per S wavelength
  in elastic regions and 5.5 per P wavelength in fluid regions):

   7.77347994      -    7.78133202               0     0.00000000      %
   7.78133202      -    7.78918409               0     0.00000000      %
   7.78918409      -    7.79703617               0     0.00000000      %
   7.79703617      -    7.80488777               0     0.00000000      %
   7.80488777      -    7.81273985               0     0.00000000      %
   7.81273985      -    7.82059193               0     0.00000000      %
   7.82059193      -    7.82844400               0     0.00000000      %
   7.82844400      -    7.83629608               0     0.00000000      %
   7.83629608      -    7.84414816               0     0.00000000      %
   7.84414816      -    7.85200024             998     9.24074078      %
   7.85200024      -    7.85985184            9802     90.7592621      %
   7.85985184      -    7.86770391               0     0.00000000      %
   7.86770391      -    7.87555599               0     0.00000000      %
   7.87555599      -    7.88340807               0     0.00000000      %
   7.88340807      -    7.89126015               0     0.00000000      %
   7.89126015      -    7.89911222               0     0.00000000      %
   7.89911222      -    7.90696383               0     0.00000000      %
   7.90696383      -    7.91481590               0     0.00000000      %
   7.91481590      -    7.92266798               0     0.00000000      %
   7.92266798      -    7.93052006               0     0.00000000      %

 total percentage =    100.00000000000000       %

 -----------------------------------------

 histogram of min number of points per P wavelength in fluid regions:

 there are        10800  elements out of        21600  in fluid regions
   (i.e.,    50.0000000     % of the total)

 (too small = poor resolution of calculations -
  too big = wasting memory and CPU time)
 (threshold value is around 4.5 points per S wavelength
  in elastic regions and 5.5 per P wavelength in fluid regions):

   5.94000006      -    5.94600010               0     0.00000000      %
   5.94600010      -    5.95200014               0     0.00000000      %
   5.95200014      -    5.95800018               0     0.00000000      %
   5.95800018      -    5.96400023               0     0.00000000      %
   5.96400023      -    5.96999979               0     0.00000000      %
   5.96999979      -    5.97599983               0     0.00000000      %
   5.97599983      -    5.98199987               0     0.00000000      %
   5.98199987      -    5.98799992               0     0.00000000      %
   5.98799992      -    5.99399996               0     0.00000000      %
   5.99399996      -    6.00000000              72    0.666666687      %
   6.00000000      -    6.00600004           10728     99.3333359      %
   6.00600004      -    6.01200008               0     0.00000000      %
   6.01200008      -    6.01800013               0     0.00000000      %
   6.01800013      -    6.02400017               0     0.00000000      %
   6.02400017      -    6.03000021               0     0.00000000      %
   6.03000021      -    6.03599977               0     0.00000000      %
   6.03599977      -    6.04199982               0     0.00000000      %
   6.04199982      -    6.04799986               0     0.00000000      %
   6.04799986      -    6.05399990               0     0.00000000      %
   6.05399990      -    6.05999994               0     0.00000000      %

 total percentage =    100.00000000000000       %


 total number of elements in fluid and solid regions =        21600


 Preparing source time function

 Preparing attenuation in solid parts of the model:
   using external model for Qkappa and Qmu:  F
   reading velocity at f0                 :  F
   using f0 attenuation =    10.000000000000000      Hz

 Preparing material arrays

 Preparing image coloring
   allocating color image arrays
   locating all the pixels of color images
   total number of image pixels =       275745
   done locating all the pixels of color images
   coloring image background based on vp

 done, preparation successful


 =========================================
 =  T i m e  e v o l u t i o n  l o o p  =
 =========================================


 Starting time iteration loop ...


 ******************************************************************
Time step number       5   t =    0.0024 s out of    4500
 ******************************************************************
 We have done    8.89086500E-02 % of the total
 Max norm of vector field in solid (elastic) =    0.00000000    
 Max absolute value of scalar field in fluid (acoustic) =    7.05489051E-03
 Elapsed time in seconds =   0.11500000953674316     
 Elapsed time in hh:mm:ss =      0 h 00 m 00 s
 Mean elapsed time per time step in seconds =    2.3000001907348633E-002
 Time steps remaining =         4495
 Estimated remaining time in seconds =    103.38500857353210     
 Estimated remaining time in hh:mm:ss =      0 h 01 m 43 s
 Estimated total run time in seconds =    103.50000858306885     
 Estimated total run time in hh:mm:ss =      0 h 01 m 43 s
 The run will finish approximately on: Fri May 12, 2017 10:27


 Creating color image of size          606  x          478  for time step            5
 drawing scalar image of part of the displacement vector...
 Color image maximum amplitude =    1.4761794773221482E-006
 Color image created

 Creating color image of size          606  x          478  for time step          100
 drawing scalar image of part of the displacement vector...
 Color image maximum amplitude =    1.9975773990154266E-002
 Color image created

 Creating color image of size          606  x          478  for time step          200
 drawing scalar image of part of the displacement vector...
 Color image maximum amplitude =   0.13451237976551056     
 Color image created

 Creating color image of size          606  x          478  for time step          300
 drawing scalar image of part of the displacement vector...
 Color image maximum amplitude =    2.2399332374334335E-002
 Color image created

 Creating color image of size          606  x          478  for time step          400
 drawing scalar image of part of the displacement vector...
 Color image maximum amplitude =    5.5765913566574454E-004
 Color image created

 ******************************************************************
Time step number     500   t =    0.2994 s out of    4500
 ******************************************************************
 We have done    11.0913534     % of the total
 Max norm of vector field in solid (elastic) =    2.66623247E-04
 Max absolute value of scalar field in fluid (acoustic) =    8.87459564    
 Elapsed time in seconds =    12.953000068664551     
 Elapsed time in hh:mm:ss =      0 h 00 m 12 s
 Mean elapsed time per time step in seconds =    2.5906000137329101E-002
 Time steps remaining =         4000
 Estimated remaining time in seconds =    103.62400054931641     
 Estimated remaining time in hh:mm:ss =      0 h 01 m 43 s
 Estimated total run time in seconds =    116.57700061798096     
 Estimated total run time in hh:mm:ss =      0 h 01 m 56 s
 The run will finish approximately on: Fri May 12, 2017 10:27


 Creating color image of size          606  x          478  for time step          500
 drawing scalar image of part of the displacement vector...
 Color image maximum amplitude =    3.5124778514727950E-004
 Color image created

 Creating color image of size          606  x          478  for time step          600
 drawing scalar image of part of the displacement vector...
 Color image maximum amplitude =    2.6245851768180728E-004
 Color image created

 Creating color image of size          606  x          478  for time step          700
 drawing scalar image of part of the displacement vector...
 Color image maximum amplitude =    2.0262367615941912E-004
 Color image created

 Creating color image of size          606  x          478  for time step          800
 drawing scalar image of part of the displacement vector...
 Color image maximum amplitude =    1.7088954336941242E-004
 Color image created

 Creating color image of size          606  x          478  for time step          900
 drawing scalar image of part of the displacement vector...
 Color image maximum amplitude =    1.4369176642503589E-004
 Color image created

 ******************************************************************
Time step number    1000   t =    0.5994 s out of    4500
 ******************************************************************
 We have done    22.2049351     % of the total
 Max norm of vector field in solid (elastic) =    6.53214956E-05
 Max absolute value of scalar field in fluid (acoustic) =    4.93901634    
 Elapsed time in seconds =    27.569000005722046     
 Elapsed time in hh:mm:ss =      0 h 00 m 27 s
 Mean elapsed time per time step in seconds =    2.7569000005722048E-002
 Time steps remaining =         3500
 Estimated remaining time in seconds =    96.491500020027161     
 Estimated remaining time in hh:mm:ss =      0 h 01 m 36 s
 Estimated total run time in seconds =    124.06050002574921     
 Estimated total run time in hh:mm:ss =      0 h 02 m 04 s
 The run will finish approximately on: Fri May 12, 2017 10:27


 Creating color image of size          606  x          478  for time step         1000
 drawing scalar image of part of the displacement vector...
 Color image maximum amplitude =    1.2743796105496585E-004
 Color image created

 Creating color image of size          606  x          478  for time step         1100
 drawing scalar image of part of the displacement vector...
 Color image maximum amplitude =    1.1143274605274200E-004
 Color image created

 Creating color image of size          606  x          478  for time step         1200
 drawing scalar image of part of the displacement vector...
 Color image maximum amplitude =    1.0151288734050468E-004
 Color image created

 Creating color image of size          606  x          478  for time step         1300
 drawing scalar image of part of the displacement vector...
 Color image maximum amplitude =    9.1151749074924737E-005
 Color image created

 Creating color image of size          606  x          478  for time step         1400
 drawing scalar image of part of the displacement vector...
 Color image maximum amplitude =    8.4195395174901932E-005
 Color image created

 ******************************************************************
Time step number    1500   t =    0.8994 s out of    4500
 ******************************************************************
 We have done    33.3185158     % of the total
 Max norm of vector field in solid (elastic) =    3.79081721E-05
 Max absolute value of scalar field in fluid (acoustic) =    3.09915495    
 Elapsed time in seconds =    41.925999879837036     
 Elapsed time in hh:mm:ss =      0 h 00 m 41 s
 Mean elapsed time per time step in seconds =    2.7950666586558023E-002
 Time steps remaining =         3000
 Estimated remaining time in seconds =    83.851999759674072     
 Estimated remaining time in hh:mm:ss =      0 h 01 m 23 s
 Estimated total run time in seconds =    125.77799963951111     
 Estimated total run time in hh:mm:ss =      0 h 02 m 05 s
 The run will finish approximately on: Fri May 12, 2017 10:27


 Creating color image of size          606  x          478  for time step         1500
 drawing scalar image of part of the displacement vector...
 Color image maximum amplitude =    7.6845331932418048E-005
 Color image created

 Creating color image of size          606  x          478  for time step         1600
 drawing scalar image of part of the displacement vector...
 Color image maximum amplitude =    7.2245420597027987E-005
 Color image created

 Creating color image of size          606  x          478  for time step         1700
 drawing scalar image of part of the displacement vector...
 Color image maximum amplitude =    6.6777291067410260E-005
 Color image created

 Creating color image of size          606  x          478  for time step         1800
 drawing scalar image of part of the displacement vector...
 Color image maximum amplitude =    6.2881561461836100E-005
 Color image created

 Creating color image of size          606  x          478  for time step         1900
 drawing scalar image of part of the displacement vector...
 Color image maximum amplitude =    5.8722798712551594E-005
 Color image created

 ******************************************************************
Time step number    2000   t =    1.1994 s out of    4500
 ******************************************************************
 We have done    44.4320946     % of the total
 Max norm of vector field in solid (elastic) =    3.27947346E-05
 Max absolute value of scalar field in fluid (acoustic) =    2.53349543    
 Elapsed time in seconds =    56.401999950408936     
 Elapsed time in hh:mm:ss =      0 h 00 m 56 s
 Mean elapsed time per time step in seconds =    2.8200999975204467E-002
 Time steps remaining =         2500
 Estimated remaining time in seconds =    70.502499938011169     
 Estimated remaining time in hh:mm:ss =      0 h 01 m 10 s
 Estimated total run time in seconds =    126.90449988842010     
 Estimated total run time in hh:mm:ss =      0 h 02 m 06 s
 The run will finish approximately on: Fri May 12, 2017 10:27


 Creating color image of size          606  x          478  for time step         2000
 drawing scalar image of part of the displacement vector...
 Color image maximum amplitude =    5.6078901252476498E-005
 Color image created

 Creating color image of size          606  x          478  for time step         2100
 drawing scalar image of part of the displacement vector...
 Color image maximum amplitude =    5.2072435209993273E-005
 Color image created

 Creating color image of size          606  x          478  for time step         2200
 drawing scalar image of part of the displacement vector...
 Color image maximum amplitude =    5.0185408326797187E-005
 Color image created

 Creating color image of size          606  x          478  for time step         2300
 drawing scalar image of part of the displacement vector...
 Color image maximum amplitude =    4.7470195568166673E-005
 Color image created

 Creating color image of size          606  x          478  for time step         2400
 drawing scalar image of part of the displacement vector...
 Color image maximum amplitude =    4.5827200665371493E-005
 Color image created

 ******************************************************************
Time step number    2500   t =    1.4994 s out of    4500
 ******************************************************************
 We have done    55.5456772     % of the total
 Max norm of vector field in solid (elastic) =    2.84267153E-05
 Max absolute value of scalar field in fluid (acoustic) =    2.20361543    
 Elapsed time in seconds =    71.102999925613403     
 Elapsed time in hh:mm:ss =      0 h 01 m 11 s
 Mean elapsed time per time step in seconds =    2.8441199970245360E-002
 Time steps remaining =         2000
 Estimated remaining time in seconds =    56.882399940490721     
 Estimated remaining time in hh:mm:ss =      0 h 00 m 56 s
 Estimated total run time in seconds =    127.98539986610413     
 Estimated total run time in hh:mm:ss =      0 h 02 m 07 s
 The run will finish approximately on: Fri May 12, 2017 10:27


 Creating color image of size          606  x          478  for time step         2500
 drawing scalar image of part of the displacement vector...
 Color image maximum amplitude =    4.3564745283219963E-005
 Color image created

 Creating color image of size          606  x          478  for time step         2600
 drawing scalar image of part of the displacement vector...
 Color image maximum amplitude =    4.0873095713322982E-005
 Color image created

 Creating color image of size          606  x          478  for time step         2700
 drawing scalar image of part of the displacement vector...
 Color image maximum amplitude =    3.7600446376018226E-005
 Color image created

 Creating color image of size          606  x          478  for time step         2800
 drawing scalar image of part of the displacement vector...
 Color image maximum amplitude =    3.4840799344237894E-005
 Color image created

 Creating color image of size          606  x          478  for time step         2900
 drawing scalar image of part of the displacement vector...
 Color image maximum amplitude =    3.3049527701223269E-005
 Color image created

 ******************************************************************
Time step number    3000   t =    1.7994 s out of    4500
 ******************************************************************
 We have done    66.6592560     % of the total
 Max norm of vector field in solid (elastic) =    2.48901306E-05
 Max absolute value of scalar field in fluid (acoustic) =    1.94524574    
 Elapsed time in seconds =    85.914000034332275     
 Elapsed time in hh:mm:ss =      0 h 01 m 25 s
 Mean elapsed time per time step in seconds =    2.8638000011444092E-002
 Time steps remaining =         1500
 Estimated remaining time in seconds =    42.957000017166138     
 Estimated remaining time in hh:mm:ss =      0 h 00 m 42 s
 Estimated total run time in seconds =    128.87100005149841     
 Estimated total run time in hh:mm:ss =      0 h 02 m 08 s
 The run will finish approximately on: Fri May 12, 2017 10:27


 Creating color image of size          606  x          478  for time step         3000
 drawing scalar image of part of the displacement vector...
 Color image maximum amplitude =    3.1956875318428501E-005
 Color image created

 Creating color image of size          606  x          478  for time step         3100
 drawing scalar image of part of the displacement vector...
 Color image maximum amplitude =    3.0773036996833980E-005
 Color image created

 Creating color image of size          606  x          478  for time step         3200
 drawing scalar image of part of the displacement vector...
 Color image maximum amplitude =    2.9505732527468354E-005
 Color image created

 Creating color image of size          606  x          478  for time step         3300
 drawing scalar image of part of the displacement vector...
 Color image maximum amplitude =    2.8389937142492272E-005
 Color image created

 Creating color image of size          606  x          478  for time step         3400
 drawing scalar image of part of the displacement vector...
 Color image maximum amplitude =    2.7326923373038881E-005
 Color image created

 ******************************************************************
Time step number    3500   t =    2.0994 s out of    4500
 ******************************************************************
 We have done    77.7728348     % of the total
 Max norm of vector field in solid (elastic) =    2.22084764E-05
 Max absolute value of scalar field in fluid (acoustic) =    1.73907781    
 Elapsed time in seconds =    100.70099997520447     
 Elapsed time in hh:mm:ss =      0 h 01 m 40 s
 Mean elapsed time per time step in seconds =    2.8771714278629849E-002
 Time steps remaining =         1000
 Estimated remaining time in seconds =    28.771714278629847     
 Estimated remaining time in hh:mm:ss =      0 h 00 m 28 s
 Estimated total run time in seconds =    129.47271425383431     
 Estimated total run time in hh:mm:ss =      0 h 02 m 09 s
 The run will finish approximately on: Fri May 12, 2017 10:27


 Creating color image of size          606  x          478  for time step         3500
 drawing scalar image of part of the displacement vector...
 Color image maximum amplitude =    2.6406147298985161E-005
 Color image created

 Creating color image of size          606  x          478  for time step         3600
 drawing scalar image of part of the displacement vector...
 Color image maximum amplitude =    2.5356590413139202E-005
 Color image created

 Creating color image of size          606  x          478  for time step         3700
 drawing scalar image of part of the displacement vector...
 Color image maximum amplitude =    2.4588425731053576E-005
 Color image created

 Creating color image of size          606  x          478  for time step         3800
 drawing scalar image of part of the displacement vector...
 Color image maximum amplitude =    2.3616797989234328E-005
 Color image created

 Creating color image of size          606  x          478  for time step         3900
 drawing scalar image of part of the displacement vector...
 Color image maximum amplitude =    2.2889189494890161E-005
 Color image created

 ******************************************************************
Time step number    4000   t =    2.3994 s out of    4500
 ******************************************************************
 We have done    88.8864212     % of the total
 Max norm of vector field in solid (elastic) =    2.00231534E-05
 Max absolute value of scalar field in fluid (acoustic) =    1.56951737    
 Elapsed time in seconds =    115.00199985504150     
 Elapsed time in hh:mm:ss =      0 h 01 m 55 s
 Mean elapsed time per time step in seconds =    2.8750499963760376E-002
 Time steps remaining =          500
 Estimated remaining time in seconds =    14.375249981880188     
 Estimated remaining time in hh:mm:ss =      0 h 00 m 14 s
 Estimated total run time in seconds =    129.37724983692169     
 Estimated total run time in hh:mm:ss =      0 h 02 m 09 s
 The run will finish approximately on: Fri May 12, 2017 10:27


 Creating color image of size          606  x          478  for time step         4000
 drawing scalar image of part of the displacement vector...
 Color image maximum amplitude =    2.2156367776915431E-005
 Color image created

 Creating color image of size          606  x          478  for time step         4100
 drawing scalar image of part of the displacement vector...
 Color image maximum amplitude =    2.1306954295141622E-005
 Color image created

 Creating color image of size          606  x          478  for time step         4200
 drawing scalar image of part of the displacement vector...
 Color image maximum amplitude =    2.0768160538864322E-005
 Color image created

 Creating color image of size          606  x          478  for time step         4300
 drawing scalar image of part of the displacement vector...
 Color image maximum amplitude =    2.0097468222957104E-005
 Color image created

 Creating color image of size          606  x          478  for time step         4400
 drawing scalar image of part of the displacement vector...
 Color image maximum amplitude =    1.9437233277130872E-005
 Color image created

 ******************************************************************
Time step number    4500   t =    2.6994 s out of    4500
 ******************************************************************
 We have done    100.000000     % of the total
 Max norm of vector field in solid (elastic) =    1.81909545E-05
 Max absolute value of scalar field in fluid (acoustic) =    1.42662859    
 Elapsed time in seconds =    129.52399992942810     
 Elapsed time in hh:mm:ss =      0 h 02 m 09 s
 Mean elapsed time per time step in seconds =    2.8783111095428467E-002
 Time steps remaining =            0
 Estimated remaining time in seconds =    0.0000000000000000     
 Estimated remaining time in hh:mm:ss =      0 h 00 m 00 s
 Estimated total run time in seconds =    129.52399992942810     
 Estimated total run time in hh:mm:ss =      0 h 02 m 09 s


 Creating color image of size          606  x          478  for time step         4500
 drawing scalar image of part of the displacement vector...
 Color image maximum amplitude =    1.8910357539425604E-005
 Color image created


 -------------------------------------------------------------------------------
 -------------------------------------------------------------------------------
 Program SPECFEM2D: 
 -------------------------------------------------------------------------------
 -------------------------------------------------------------------------------
 Axisymmetric simple simulation
 -------------------------------------------------------------------------------
 -------------------------------------------------------------------------------
 D a t e : 12 - 05 - 2017                                 T i m e  : 10:27:10
 -------------------------------------------------------------------------------
 -------------------------------------------------------------------------------

see results in directory: OUTPUT_FILES/

done
Fri May 12 10:27:10 AST 2017
