running example: Sat Feb  9 23:50:43 AST 2019

setting up example...


running mesher on 4 processors...


 **********************************************
 *** Specfem 2-D Mesher - MPI version       ***
 **********************************************

 Running Git version of the code corresponding to undefined in the case of old tar ball builds
 dating undefined in the case of old tar ball builds

 Reading the parameter file...

 Title of the simulation: Axisymmetric simple simulation

 Axisymmetric simulation

 Receiver lines:
   Nb of line sets =            3

 Materials:
   Nb of solid, fluid or porous materials =            2

 --------
 Material #           1  isotropic
 rho,cp,cs   =    2500.0000000000000        3400.0000000000000        1963.0000000000000     
 Qkappa, Qmu =    100.00000000000000        100.00000000000000     
 Material is solid
 --------
 Material #           2  isotropic
 rho,cp,cs   =    1020.0000000000000        1500.0000000000000        0.0000000000000000     
 Qkappa, Qmu =    9999.0000000000000        9999.0000000000000     
 Material is fluid
 --------

 Mesh from internal meshing:

 Reading interface data from file: ./DATA/./interfaces_axisym.dat                                                                                                                                                                                                                                                                                                                                                                                                                                                                                                  
 Reading            2  points for interface            1
 Reading            2  points for interface            2
 Reading            2  points for interface            3

 Total number of layers in z direction =            2
 There are           60  spectral elements along Z in layer            1
 There are           60  spectral elements along Z in layer            2

 Total number of spectral elements along X =          180
 Total number of spectral elements along Z =          120

 Regions:
   Nb of regions in the mesh =            2

 ------
 Region            1
 IX from            1  to          180
 IZ from            1  to           60
 Material #            1  isotropic
 Material is solid
 vp     =    3400.00000    
 vs     =    1963.00000    
 rho    =    2500.00000    
 Poisson's ratio =   0.249996528    
 QKappa =    100.000000    
 Qmu    =    100.000000    
 ------
 Region            2
 IX from            1  to          180
 IZ from           61  to          120
 Material #            2  isotropic
 Material is fluid
 vp     =    1500.00000    
 vs     =    0.00000000    
 rho    =    1020.00000    
 Poisson's ratio =   0.500000000    
 QKappa =    9999.00000    
 Qmu    =    9999.00000    
 ------
 Total number of spectral elements         =        21600


 Parameter file successfully read 

 The mesh contains        21600  elements

 Control elements have            4  nodes

 Source           1
   Position xs, zs =    0.0000000000000000        2500.0000000000000     

   Source type (1=force, 2=moment tensor, 3=Rayleigh wave, 4=plane incident P, 5=plane incident S):            1
   Force source:
   Angle of the source (deg) =    0.0000000000000000     
   Multiplying factor  =    10000000000.000000     

   Time function type (1=Ricker, 2=First derivative, 3=Gaussian, 4=Dirac, 5=Heaviside, 8=Read from file, 9=burst):           1
   Ricker wavelet (second-derivative):
   Frequency, delay =    10.000000000000000        0.0000000000000000     

 Reading interface data from file: ./DATA/./interfaces_axisym.dat

 Axial elements:          120


 Mesh dimensions: 
   Min and max value of X in the grid =    0.0000000000000000        6400.0000000000000     
   Min and max value of Z in the grid =    0.0000000000000000        4800.0000000000009     


 ************ Computing elements load ************
 Number of elastic elements :           0
 Number of acoustic elements :        9625
 Number of viscoelastic elements :        9625
 Number of elastic PML elements :           0
 Number of acoustic PML elements :        1175
 Number of viscoelastic PML elements :        1175
 *************************************************


 Partitioning method: SCOTCH

 nedges_coupled (acoustic/elastic)     =          180
   after iteration            1 repartitioning of all coupled elements done
 nedges_coupled (acoustic/poroelastic) =            0
 nedges_coupled (poroelastic/elastic)  =            0

 slice            0  has number of spectral elements =        3176
 slice            1  has number of spectral elements =        8584
 slice            2  has number of spectral elements =        3142
 slice            3  has number of spectral elements =        6698

 Position (x,z) of the source =    0.0000000000000000        2500.0000000000000     


 writing the ./DATA/STATIONS file


 There are            3  receivers

 Target positions (x,z) of the            3  receivers

 Receiver            1  =    0.0000000000000000        2500.0000000000000     
 Receiver            2  =    2500.0000000000000        2500.0000000000000     
 Receiver            3  =    2500.0000000000000        1500.0000000000000     

 This will be a parallel simulation on            4  processor cores


running solver on 4 processors...


 **********************************************
 **** Specfem 2-D Solver - MPI version     ****
 **********************************************

 Running Git version of the code corresponding to undefined in the case of old tar ball builds
 dating undefined in the case of old tar ball builds

 There are            4  MPI processes
 Processes are numbered from 0 to            3

 There is a total of            4  slices


 NDIM =            2

 NGLLX =            5
 NGLLZ =            5

 using single precision for the calculations

 smallest and largest possible floating-point numbers are:    1.17549435E-38   3.40282347E+38


 -------------------------------------------------------------------------------
 -------------------------------------------------------------------------------
 Program SPECFEM2D: 
 -------------------------------------------------------------------------------
 -------------------------------------------------------------------------------
 Axisymmetric simple simulation
 -------------------------------------------------------------------------------
 -------------------------------------------------------------------------------
 D a t e : 09 - 02 - 2019                                 T i m e  : 23:50:43
 -------------------------------------------------------------------------------
 -------------------------------------------------------------------------------


 -----------------------------------------------------
 --- A x i s y m m e t r i c   S i m u l a t i o n ---
 -----------------------------------------------------


 C o n t r o l
 =============

     Number of spectral element control nodes. . .(npgeo) =    3314
     Number of space dimensions. . . . . . . . . . (NDIM) =       2


 C o n t r o l
 =============

     Display frequency . . . .(NSTEP_BETWEEN_OUTPUT_INFO) =    500
     Color display . . . . . . . . . . . . . . . (colors) =      1
      == 0     black and white display              
      == 1     color display                        
     Numbered mesh . . . . . . . . . . . . . . .(numbers) =      0
      == 0     do not number the mesh               
      == 1     number the mesh                      


 C o n t r o l
 =============

     Seismograms recording type . . . . . . .(seismotype) = 1
     Angle for first line of receivers. . . . .(anglerec) =   0.00


 C o n t r o l
 =============

     Read external initial field. . . . . .(initialfield) =      F
     Add Bielak conditions (add_Bielak_conditions_bottom) =      F
     Add Bielak conditions .(add_Bielak_conditions_right) =      F
     Add Bielak conditions . .(add_Bielak_conditions_top) =      F
     Add Bielak conditions. .(add_Bielak_conditions_left) =      F
     Attenuation in solid . . .(ATTENUATION_VISCOELASTIC) =      T
     Attenuation in fluid . . (ATTENUATION_VISCOACOUSTIC) =      F
     Save grid in ASCII file or not . (output_grid_ASCII) =      F
     Save a file with total energy or not.(OUTPUT_ENERGY) =      F


 C o n t r o l
 =============

     Vector display type . . . . . . . . .(imagetype_postscript) =      1
     Percentage of cut for vector plots. . . . . . . .(cutsnaps) =   1.00
     Subsampling of velocity model display. (subsamp_postscript) =      1


 I t e r a t i o n s 
 ===================

     Number of time iterations . . . . .(NSTEP) =    4500
     Time step increment. . . . . . . . . .(DT) =   6.000000E-04
     Total simulation duration . . . . . (ttot) =   2.700000E+00


     Source Type. . . . . . . . . . . . . . = Collocated Force
     X-position (meters). . . . . . . . . . =    0.0000000000E+00
     Y-position (meters). . . . . . . . . . =    2.5000000000E+03
     Fundamental frequency (Hz) . . . . . . =    1.0000000000E+01
     Time delay (s) . . . . . . . . . . . . =    0.0000000000E+00
     Multiplying factor . . . . . . . . . . =    1.0000000000E+10
     Angle from vertical direction (deg). . =    0.0000000000E+00

     Onset time. . . . . . =  -0.12000000000000000     
     Fundamental period. . =   0.10000000000000001     
     Fundamental frequency =    10.000000000000000     
     The onset time is ok

     -- Spectral Elements --


     Number of spectral elements . . . . . . . . .  (nspec) =  21600
     Number of control nodes per element . . . . . (ngnod) =      4
     Number of points in X-direction . . . . . . . (NGLLX) =      5
     Number of points in Y-direction . . . . . . . (NGLLZ) =      5
     Number of points per element. . . . . . (NGLLX*NGLLZ) =     25
     Number of points for display . . . . . . (pointsdisp) =      6
     Number of element material sets . . . . . . . (numat) =      2
     Number of acoustic forcing elements (nelem_acforcing) =      0
     Number of acoustic free surf (nelem_acoustic_surface) =      0


 M a t e r i a l   s e t s :   2 D  (p o r o) e l a s t i c i t y
 ======================================================

     Number of material sets . . . . . . (numat) =     2


     ----------------------------------------
     -- Elastic (solid) isotropic material --
     ----------------------------------------
     Material set number. . . . . . . . (jmat) =     1
     P-wave velocity. . . . . . . . . . . (cp) = 3.40000000E+03
     S-wave velocity. . . . . . . . . . . (cs) = 1.96300000E+03
     Mass density. . . . . . . . . . (density) = 2.50000000E+03
     Poisson's ratio. . . . . . . . .(poisson) = 2.49996529E-01
     First Lame parameter Lambda. . . (lambda) = 9.63315500E+09
     Second Lame parameter Mu. . . . . . .(mu) = 9.63342250E+09
     Bulk modulus Kappa . . . . . . . .(kappa) = 1.60554367E+10
     Young's modulus E. . . . . . . . .(young) = 2.40834894E+10
     QKappa_attenuation .  . . . . . .(QKappa) = 1.00000000E+02
     Qmu_attenuation . . . . . . . . . . (Qmu) = 1.00000000E+02


     -------------------------------
     -- Acoustic (fluid) material --
     -------------------------------
     Material set number. . . . . . . . (jmat) =     2
     P-wave velocity. . . . . . . . . . . (cp) = 1.50000000E+03
     Mass density. . . . . . . . . . (density) = 1.02000000E+03
     Bulk modulus Kappa . . . . . . . .(kappa) = 2.29500000E+09
     QKappa_attenuation. . . . . . . .(QKappa) = 9.99900000E+03
     Qmu_attenuation. . . . . . . . . . .(Qmu) = 9.99900000E+03

 Absorbing boundaries:
   using PML boundary conditions

 Total number of elements on the axis :          120

 Setting up mesh

 Generating global mesh numbering (fast version)...

 Mesh numbering:
   Total number of elements:        21600

   Total number of acoustic elements           =        10800
   Total number of elastic/visco/poro elements =        10800

 Approximate total number of grid points in the mesh
 (with a few duplicates coming from MPI buffers):       348148

 Approximate number of acoustic degrees of freedom in the mesh:       174074
 Approximate number of elastic degrees of freedom in the mesh:       348148
   (there are 2 degrees of freedom per point for elastic elements)

 Approximate total number of degrees of freedom in the mesh
 (sum of the two values above):       522222

  (for simplicity viscoelastic or poroelastic elements, if any,
   are counted as elastic in the above three estimates;
   in reality they have more degrees of freedom)

 Mesh dimensions:
   Xmin,Xmax of the whole mesh =    0.0000000000000000        6400.0000000000000     
   Zmin,Zmax of the whole mesh =    0.0000000000000000        4800.0000000000009     

 Domains:
   total number of acoustic elements        =        10800
   total number of elastic elements         =        10800
   total number of poroelastic elements     =            0

 Setting up MPI communication arrays

   maximum number of MPI interfaces (for a single slice) =            3

   total MPI interface points:         2700

   checking acoustic interfaces:
   total number of global acoustic interface points:          482
   total number of global points assembled by acoustic MPI interfaces:         482
   interfaces okay

   master process:
   number of MPI interfaces in acoustic domain    =            0
   number of MPI interfaces in elastic domain     =            2
   number of MPI interfaces in poroelastic domain =            0

   number of outer elements  =          136
   number of inner elements  =         3040

   percentage of outer elements    4.28211212     %
   percentage of inner elements    95.7178879     %

   number of global nodes in outer elements  =         2725
   number of global nodes in inner elements  =        49181

   determining communication phases:
   elastic domains:
   total number of outer/inner elements =          548       10252
   total percentage of outer elements    5.07407379     %
   total percentage of inner elements    94.9259262     %

   acoustic domains:
   total number of outer/inner elements =          120       10680
   total percentage of outer elements    1.11111450     %
   total percentage of inner elements    98.8888855     %

 All mesh setup done successfully

 sources:

 *******************************
  locating force source
 *******************************


 Force source:
             original x:    0.00000000    
             original z:    2500.00000    
 Closest estimate found:    0.00000000      m away
  in rank            1
  in element         2901
  in acoustic domain
  at xi,gamma coordinates =   -1.0000000000000000        0.0000000000000000     


 end of force source detection


 receivers:

 Total number of receivers =            3


 ********************
  locating receivers
 ********************

 reading receiver information from the ./DATA/STATIONS file


 Station #            1     AA      S0001                           
             original x:    0.00000000    
             original z:    2500.00000    
 Closest estimate found:    0.00000000      m away
  in element         2901
  in rank            1
  at xi,gamma coordinates =   -1.0000000000000000        0.0000000000000000     
 Distance from source:    0.00000000      m


 Station #            2     AA      S0002                           
             original x:    2500.00000    
             original z:    2500.00000    
 Closest estimate found:    0.00000000      m away
  in element         2971
  in rank            1
  at xi,gamma coordinates =  -0.37499999999998851        0.0000000000000000     
 Distance from source:    2500.00000      m


 Station #            3     AA      S0003                           
             original x:    2500.00000    
             original z:    1500.00000    
 Closest estimate found:    0.00000000      m away
  in element          534
  in rank            1
  at xi,gamma coordinates =  -0.37499999999998851        0.0000000000000000     
 Distance from source:    2692.58252      m


 end of receiver detection

 found a total of            3  receivers, this is okay


 Preparing array allocations
   arrays for elastic domains
   arrays for acoustic domains
   wavefield initialization
   done initialization

 Preparing PML
 Total number of PML spectral elements:         2350


 Preparing attenuation in viscoelastic or viscoacoustic parts of the model:
   using external model for Qkappa and Qmu:  F
   reading velocity at f0                 :  F
   using an attenuation reference frequency of    10.000000000000000      Hz

 Preparing mass matrices
   initializing mass matrices
   inverting mass matrices

 Preparing image coloring

 Checking mesh and stability

 ********
 Model: P (or PI) velocity min,max =    1500.0000000000000        3400.0000000000000     
 Model: S velocity min,max         =    1963.0000000000000        1963.0000000000000     
 Model: density min,max            =    1020.0000000000000        2500.0000000000000     
 ********


 *********************************************
 *** Verification of simulation parameters ***
 *********************************************

 *** Max grid size =    40.000000000000455     
 *** Min grid size =    35.555555555554747     
 *** Max/min ratio =    1.1250000000000384     

 *** Minimum GLL point distance  =    6.1394902985247102     
 *** Average GLL point distance  =    8.8888888888886868     

 *** Minimum period resolved     =    3.3333333333333715E-002
 *** Maximum frequency resolved  =    29.999999999999655      Hz

 *** Maximum suggested time step                 =    9.0286622037128090E-004
 *** Maximum suggested (Ricker) source frequency =    11.999999999999863     

 *** for DT :    5.9999999999999995E-004
 *** Max CFL stability condition of the time scheme based on P wave velocity (must be below about 0.50 or so) =   0.33227514024905330     

 ----
 Number of points per wavelength:
 ----
   Source            1
   maximum dominant source frequency =    25.000000000000000      Hz

   Nb pts / lambdaP_fmax min =    6.00000000    
   Nb pts / lambdaP_fmax max =    13.6000004    

   Nb pts / lambdaS_fmax min =    7.85200024    
   Nb pts / lambdaS_fmax max =    7.85200024    

 -----------------------------------------

 histogram of min number of points per S wavelength in solid regions:

 there are        10800  elements out of        21600  in solid regions
   (i.e.,    50.0000000     % of the total)

 (too small = poor resolution of calculations -
  too big = wasting memory and CPU time)
 (threshold value is around 4.5 points per S wavelength
  in elastic regions and 5.5 per P wavelength in fluid regions):

   7.77347994      -    7.78133202               0     0.00000000      %
   7.78133202      -    7.78918409               0     0.00000000      %
   7.78918409      -    7.79703617               0     0.00000000      %
   7.79703617      -    7.80488777               0     0.00000000      %
   7.80488777      -    7.81273985               0     0.00000000      %
   7.81273985      -    7.82059193               0     0.00000000      %
   7.82059193      -    7.82844400               0     0.00000000      %
   7.82844400      -    7.83629608               0     0.00000000      %
   7.83629608      -    7.84414816               0     0.00000000      %
   7.84414816      -    7.85200024             998     9.24074078      %
   7.85200024      -    7.85985184            9802     90.7592621      %
   7.85985184      -    7.86770391               0     0.00000000      %
   7.86770391      -    7.87555599               0     0.00000000      %
   7.87555599      -    7.88340807               0     0.00000000      %
   7.88340807      -    7.89126015               0     0.00000000      %
   7.89126015      -    7.89911222               0     0.00000000      %
   7.89911222      -    7.90696383               0     0.00000000      %
   7.90696383      -    7.91481590               0     0.00000000      %
   7.91481590      -    7.92266798               0     0.00000000      %
   7.92266798      -    7.93052006               0     0.00000000      %

 total percentage =    100.00000000000000       %

 -----------------------------------------

 histogram of min number of points per P wavelength in fluid regions:

 there are        10800  elements out of        21600  in fluid regions
   (i.e.,    50.0000000     % of the total)

 (too small = poor resolution of calculations -
  too big = wasting memory and CPU time)
 (threshold value is around 4.5 points per S wavelength
  in elastic regions and 5.5 per P wavelength in fluid regions):

   5.94000006      -    5.94600010               0     0.00000000      %
   5.94600010      -    5.95200014               0     0.00000000      %
   5.95200014      -    5.95800018               0     0.00000000      %
   5.95800018      -    5.96400023               0     0.00000000      %
   5.96400023      -    5.96999979               0     0.00000000      %
   5.96999979      -    5.97599983               0     0.00000000      %
   5.97599983      -    5.98199987               0     0.00000000      %
   5.98199987      -    5.98799992               0     0.00000000      %
   5.98799992      -    5.99399996               0     0.00000000      %
   5.99399996      -    6.00000000              72    0.666666687      %
   6.00000000      -    6.00600004           10728     99.3333359      %
   6.00600004      -    6.01200008               0     0.00000000      %
   6.01200008      -    6.01800013               0     0.00000000      %
   6.01800013      -    6.02400017               0     0.00000000      %
   6.02400017      -    6.03000021               0     0.00000000      %
   6.03000021      -    6.03599977               0     0.00000000      %
   6.03599977      -    6.04199982               0     0.00000000      %
   6.04199982      -    6.04799986               0     0.00000000      %
   6.04799986      -    6.05399990               0     0.00000000      %
   6.05399990      -    6.05999994               0     0.00000000      %

 total percentage =    100.00000000000000       %


 total number of elements in fluid and solid regions =        21600


 Preparing source time function

 Preparing material arrays

 Preparing image coloring
   allocating color image arrays
   locating all the pixels of color images
   total number of image pixels =       268053
   done locating all the pixels of color images
   coloring image background based on vp

 done, preparation successful


 =========================================
 =  T i m e  e v o l u t i o n  l o o p  =
 =========================================


 Starting time iteration loop ...


 ******************************************************************
Time step number       5   t =    0.0024 s out of    4500
 ******************************************************************
 We have done    8.89086500E-02 % of the total
 Max norm of vector field in solid (elastic) =    0.00000000    
 Max absolute value of scalar field in fluid (acoustic) =    7.05489051E-03
 Elapsed time in seconds =    7.7999830245971680E-002
 Elapsed time in hh:mm:ss =      0 h 00 m 00 s
 Mean elapsed time per time step in seconds =    1.5599966049194336E-002
 Time steps remaining =         4495
 Estimated remaining time in seconds =    70.121847391128540     
 Estimated remaining time in hh:mm:ss =      0 h 01 m 10 s
 Estimated total run time in seconds =    70.199847221374512     
 Estimated total run time in hh:mm:ss =      0 h 01 m 10 s
 The run will finish approximately on: Sat Feb 09, 2019 23:52


 Creating color image of size          598  x          472  for time step            5
 drawing scalar image of the forward wavefield displacement...
 Color image maximum amplitude =    1.4761794773221482E-006
 Color image created

 Creating color image of size          598  x          472  for time step          100
 drawing scalar image of the forward wavefield displacement...
 Color image maximum amplitude =    1.9975773990154266E-002
 Color image created

 Creating color image of size          598  x          472  for time step          200
 drawing scalar image of the forward wavefield displacement...
 Color image maximum amplitude =   0.13451237976551056     
 Color image created

 Creating color image of size          598  x          472  for time step          300
 drawing scalar image of the forward wavefield displacement...
 Color image maximum amplitude =    2.2399334236979485E-002
 Color image created

 Creating color image of size          598  x          472  for time step          400
 drawing scalar image of the forward wavefield displacement...
 Color image maximum amplitude =    5.1480106776580215E-004
 Color image created

 ******************************************************************
Time step number     500   t =    0.2994 s out of    4500
 ******************************************************************
 We have done    11.0913534     % of the total
 Max norm of vector field in solid (elastic) =    2.66579067E-04
 Max absolute value of scalar field in fluid (acoustic) =    8.86419296    
 Elapsed time in seconds =    9.6069998741149902     
 Elapsed time in hh:mm:ss =      0 h 00 m 09 s
 Mean elapsed time per time step in seconds =    1.9213999748229980E-002
 Time steps remaining =         4000
 Estimated remaining time in seconds =    76.855998992919922     
 Estimated remaining time in hh:mm:ss =      0 h 01 m 16 s
 Estimated total run time in seconds =    86.462998867034912     
 Estimated total run time in hh:mm:ss =      0 h 01 m 26 s
 The run will finish approximately on: Sat Feb 09, 2019 23:52


 Creating color image of size          598  x          472  for time step          500
 drawing scalar image of the forward wavefield displacement...
 Color image maximum amplitude =    3.5124766873195767E-004
 Color image created

 Creating color image of size          598  x          472  for time step          600
 drawing scalar image of the forward wavefield displacement...
 Color image maximum amplitude =    2.6245988556183875E-004
 Color image created

 Creating color image of size          598  x          472  for time step          700
 drawing scalar image of the forward wavefield displacement...
 Color image maximum amplitude =    2.0262329780962318E-004
 Color image created

 Creating color image of size          598  x          472  for time step          800
 drawing scalar image of the forward wavefield displacement...
 Color image maximum amplitude =    1.7090047185774893E-004
 Color image created

 Creating color image of size          598  x          472  for time step          900
 drawing scalar image of the forward wavefield displacement...
 Color image maximum amplitude =    1.4369167911354452E-004
 Color image created

 ******************************************************************
Time step number    1000   t =    0.5994 s out of    4500
 ******************************************************************
 We have done    22.2049351     % of the total
 Max norm of vector field in solid (elastic) =    6.52070230E-05
 Max absolute value of scalar field in fluid (acoustic) =    4.92271662    
 Elapsed time in seconds =    19.664999961853027     
 Elapsed time in hh:mm:ss =      0 h 00 m 19 s
 Mean elapsed time per time step in seconds =    1.9664999961853027E-002
 Time steps remaining =         3500
 Estimated remaining time in seconds =    68.827499866485596     
 Estimated remaining time in hh:mm:ss =      0 h 01 m 08 s
 Estimated total run time in seconds =    88.492499828338623     
 Estimated total run time in hh:mm:ss =      0 h 01 m 28 s
 The run will finish approximately on: Sat Feb 09, 2019 23:52


 Creating color image of size          598  x          472  for time step         1000
 drawing scalar image of the forward wavefield displacement...
 Color image maximum amplitude =    1.2743791739922017E-004
 Color image created

 Creating color image of size          598  x          472  for time step         1100
 drawing scalar image of the forward wavefield displacement...
 Color image maximum amplitude =    1.1143276788061485E-004
 Color image created

 Creating color image of size          598  x          472  for time step         1200
 drawing scalar image of the forward wavefield displacement...
 Color image maximum amplitude =    1.0151263995794579E-004
 Color image created

 Creating color image of size          598  x          472  for time step         1300
 drawing scalar image of the forward wavefield displacement...
 Color image maximum amplitude =    9.1048168542329222E-005
 Color image created

 Creating color image of size          598  x          472  for time step         1400
 drawing scalar image of the forward wavefield displacement...
 Color image maximum amplitude =    8.4195271483622491E-005
 Color image created

 ******************************************************************
Time step number    1500   t =    0.8994 s out of    4500
 ******************************************************************
 We have done    33.3185158     % of the total
 Max norm of vector field in solid (elastic) =    3.77768083E-05
 Max absolute value of scalar field in fluid (acoustic) =    3.09750319    
 Elapsed time in seconds =    31.700999975204468     
 Elapsed time in hh:mm:ss =      0 h 00 m 31 s
 Mean elapsed time per time step in seconds =    2.1133999983469647E-002
 Time steps remaining =         3000
 Estimated remaining time in seconds =    63.401999950408943     
 Estimated remaining time in hh:mm:ss =      0 h 01 m 03 s
 Estimated total run time in seconds =    95.102999925613403     
 Estimated total run time in hh:mm:ss =      0 h 01 m 35 s
 The run will finish approximately on: Sat Feb 09, 2019 23:52


 Creating color image of size          598  x          472  for time step         1500
 drawing scalar image of the forward wavefield displacement...
 Color image maximum amplitude =    7.6845244620926678E-005
 Color image created

 Creating color image of size          598  x          472  for time step         1600
 drawing scalar image of the forward wavefield displacement...
 Color image maximum amplitude =    7.2245369665324688E-005
 Color image created

 Creating color image of size          598  x          472  for time step         1700
 drawing scalar image of the forward wavefield displacement...
 Color image maximum amplitude =    6.6835498728323728E-005
 Color image created

 Creating color image of size          598  x          472  for time step         1800
 drawing scalar image of the forward wavefield displacement...
 Color image maximum amplitude =    6.2881335907150060E-005
 Color image created

 Creating color image of size          598  x          472  for time step         1900
 drawing scalar image of the forward wavefield displacement...
 Color image maximum amplitude =    5.8700363297248259E-005
 Color image created

 ******************************************************************
Time step number    2000   t =    1.1994 s out of    4500
 ******************************************************************
 We have done    44.4320946     % of the total
 Max norm of vector field in solid (elastic) =    3.26433365E-05
 Max absolute value of scalar field in fluid (acoustic) =    2.53018188    
 Elapsed time in seconds =    43.309999942779541     
 Elapsed time in hh:mm:ss =      0 h 00 m 43 s
 Mean elapsed time per time step in seconds =    2.1654999971389772E-002
 Time steps remaining =         2500
 Estimated remaining time in seconds =    54.137499928474426     
 Estimated remaining time in hh:mm:ss =      0 h 00 m 54 s
 Estimated total run time in seconds =    97.447499871253967     
 Estimated total run time in hh:mm:ss =      0 h 01 m 37 s
 The run will finish approximately on: Sat Feb 09, 2019 23:52


 Creating color image of size          598  x          472  for time step         2000
 drawing scalar image of the forward wavefield displacement...
 Color image maximum amplitude =    5.6078806665027514E-005
 Color image created

 Creating color image of size          598  x          472  for time step         2100
 drawing scalar image of the forward wavefield displacement...
 Color image maximum amplitude =    5.2712653996422887E-005
 Color image created

 Creating color image of size          598  x          472  for time step         2200
 drawing scalar image of the forward wavefield displacement...
 Color image maximum amplitude =    5.0185295549454167E-005
 Color image created

 Creating color image of size          598  x          472  for time step         2300
 drawing scalar image of the forward wavefield displacement...
 Color image maximum amplitude =    4.7470170102315024E-005
 Color image created

 Creating color image of size          598  x          472  for time step         2400
 drawing scalar image of the forward wavefield displacement...
 Color image maximum amplitude =    4.5827197027392685E-005
 Color image created

 ******************************************************************
Time step number    2500   t =    1.4994 s out of    4500
 ******************************************************************
 We have done    55.5456772     % of the total
 Max norm of vector field in solid (elastic) =    2.83097197E-05
 Max absolute value of scalar field in fluid (acoustic) =    2.19950271    
 Elapsed time in seconds =    54.345999956130981     
 Elapsed time in hh:mm:ss =      0 h 00 m 54 s
 Mean elapsed time per time step in seconds =    2.1738399982452392E-002
 Time steps remaining =         2000
 Estimated remaining time in seconds =    43.476799964904785     
 Estimated remaining time in hh:mm:ss =      0 h 00 m 43 s
 Estimated total run time in seconds =    97.822799921035767     
 Estimated total run time in hh:mm:ss =      0 h 01 m 37 s
 The run will finish approximately on: Sat Feb 09, 2019 23:52


 Creating color image of size          598  x          472  for time step         2500
 drawing scalar image of the forward wavefield displacement...
 Color image maximum amplitude =    4.3564690713537857E-005
 Color image created

 Creating color image of size          598  x          472  for time step         2600
 drawing scalar image of the forward wavefield displacement...
 Color image maximum amplitude =    4.0872877434594557E-005
 Color image created

 Creating color image of size          598  x          472  for time step         2700
 drawing scalar image of the forward wavefield displacement...
 Color image maximum amplitude =    3.7600024370476604E-005
 Color image created

 Creating color image of size          598  x          472  for time step         2800
 drawing scalar image of the forward wavefield displacement...
 Color image maximum amplitude =    3.4790253266692162E-005
 Color image created

 Creating color image of size          598  x          472  for time step         2900
 drawing scalar image of the forward wavefield displacement...
 Color image maximum amplitude =    3.3146112400572747E-005
 Color image created

 ******************************************************************
Time step number    3000   t =    1.7994 s out of    4500
 ******************************************************************
 We have done    66.6592560     % of the total
 Max norm of vector field in solid (elastic) =    2.48972938E-05
 Max absolute value of scalar field in fluid (acoustic) =    1.94019997    
 Elapsed time in seconds =    65.984999895095825     
 Elapsed time in hh:mm:ss =      0 h 01 m 05 s
 Mean elapsed time per time step in seconds =    2.1994999965031941E-002
 Time steps remaining =         1500
 Estimated remaining time in seconds =    32.992499947547913     
 Estimated remaining time in hh:mm:ss =      0 h 00 m 32 s
 Estimated total run time in seconds =    98.977499842643738     
 Estimated total run time in hh:mm:ss =      0 h 01 m 38 s
 The run will finish approximately on: Sat Feb 09, 2019 23:52


 Creating color image of size          598  x          472  for time step         3000
 drawing scalar image of the forward wavefield displacement...
 Color image maximum amplitude =    3.1912870326777920E-005
 Color image created

 Creating color image of size          598  x          472  for time step         3100
 drawing scalar image of the forward wavefield displacement...
 Color image maximum amplitude =    3.0724047974217683E-005
 Color image created

 Creating color image of size          598  x          472  for time step         3200
 drawing scalar image of the forward wavefield displacement...
 Color image maximum amplitude =    2.9468628781614825E-005
 Color image created

 Creating color image of size          598  x          472  for time step         3300
 drawing scalar image of the forward wavefield displacement...
 Color image maximum amplitude =    2.8366603146423586E-005
 Color image created

 Creating color image of size          598  x          472  for time step         3400
 drawing scalar image of the forward wavefield displacement...
 Color image maximum amplitude =    2.7312178644933738E-005
 Color image created

 ******************************************************************
Time step number    3500   t =    2.0994 s out of    4500
 ******************************************************************
 We have done    77.7728348     % of the total
 Max norm of vector field in solid (elastic) =    4.17268515E-04
 Max absolute value of scalar field in fluid (acoustic) =    1.73275614    
 Elapsed time in seconds =    77.560999870300293     
 Elapsed time in hh:mm:ss =      0 h 01 m 17 s
 Mean elapsed time per time step in seconds =    2.2160285677228653E-002
 Time steps remaining =         1000
 Estimated remaining time in seconds =    22.160285677228654     
 Estimated remaining time in hh:mm:ss =      0 h 00 m 22 s
 Estimated total run time in seconds =    99.721285547528950     
 Estimated total run time in hh:mm:ss =      0 h 01 m 39 s
 The run will finish approximately on: Sat Feb 09, 2019 23:52


 Creating color image of size          598  x          472  for time step         3500
 drawing scalar image of the forward wavefield displacement...
 Color image maximum amplitude =    2.6251704184687696E-005
 Color image created

 Creating color image of size          598  x          472  for time step         3600
 drawing scalar image of the forward wavefield displacement...
 Color image maximum amplitude =    2.5417704819119535E-005
 Color image created

 Creating color image of size          598  x          472  for time step         3700
 drawing scalar image of the forward wavefield displacement...
 Color image maximum amplitude =    2.4526068955310620E-005
 Color image created

 Creating color image of size          598  x          472  for time step         3800
 drawing scalar image of the forward wavefield displacement...
 Color image maximum amplitude =    2.3595130187459290E-005
 Color image created

 Creating color image of size          598  x          472  for time step         3900
 drawing scalar image of the forward wavefield displacement...
 Color image maximum amplitude =    3.9814141928218305E-005
 Color image created

 ******************************************************************
Time step number    4000   t =    2.3994 s out of    4500
 ******************************************************************
 We have done    88.8864212     % of the total
 Max norm of vector field in solid (elastic) =    1.23961885E-02
 Max absolute value of scalar field in fluid (acoustic) =    1.56184733    
 Elapsed time in seconds =    88.838999986648560     
 Elapsed time in hh:mm:ss =      0 h 01 m 28 s
 Mean elapsed time per time step in seconds =    2.2209749996662139E-002
 Time steps remaining =          500
 Estimated remaining time in seconds =    11.104874998331070     
 Estimated remaining time in hh:mm:ss =      0 h 00 m 11 s
 Estimated total run time in seconds =    99.943874984979630     
 Estimated total run time in hh:mm:ss =      0 h 01 m 39 s
 The run will finish approximately on: Sat Feb 09, 2019 23:52


 Creating color image of size          598  x          472  for time step         4000
 drawing scalar image of the forward wavefield displacement...
 Color image maximum amplitude =    9.1581081505864859E-005
 Color image created

 Creating color image of size          598  x          472  for time step         4100
 drawing scalar image of the forward wavefield displacement...
 Color image maximum amplitude =    1.9664903811644763E-004
 Color image created

 Creating color image of size          598  x          472  for time step         4200
 drawing scalar image of the forward wavefield displacement...
 Color image maximum amplitude =    4.1494049946777523E-004
 Color image created

 Creating color image of size          598  x          472  for time step         4300
 drawing scalar image of the forward wavefield displacement...
 Color image maximum amplitude =    8.6724589345976710E-004
 Color image created

 Creating color image of size          598  x          472  for time step         4400
 drawing scalar image of the forward wavefield displacement...
 Color image maximum amplitude =    1.7683070618659258E-003
 Color image created

 ******************************************************************
Time step number    4500   t =    2.6994 s out of    4500
 ******************************************************************
 We have done    100.000000     % of the total
 Max norm of vector field in solid (elastic) =   0.615766704    
 Max absolute value of scalar field in fluid (acoustic) =    1.41759193    
 Elapsed time in seconds =    99.964999914169312     
 Elapsed time in hh:mm:ss =      0 h 01 m 39 s
 Mean elapsed time per time step in seconds =    2.2214444425370957E-002
 Time steps remaining =            0
 Estimated remaining time in seconds =    0.0000000000000000     
 Estimated remaining time in hh:mm:ss =      0 h 00 m 00 s
 Estimated total run time in seconds =    99.964999914169312     
 Estimated total run time in hh:mm:ss =      0 h 01 m 39 s


 Creating color image of size          598  x          472  for time step         4500
 drawing scalar image of the forward wavefield displacement...
 Color image maximum amplitude =    3.6491905339062214E-003
 Color image created

 Total duration of the time loop in seconds =    99.6080856      s
 Total number of time steps =         4500
 Average duration of a time step of the time loop =    2.21351311E-02  s
 Total number of spectral elements in the mesh =         3176
     of which         2686  are regular elements
     and          490  are PML elements.
 Average duration of the calculation per spectral element =    6.96949928E-06  s


 Total duration of the timeloop in seconds, measured using 
 date and time of the system :    100.005997      s


 -------------------------------------------------------------------------------
 -------------------------------------------------------------------------------
 Program SPECFEM2D: 
 -------------------------------------------------------------------------------
 -------------------------------------------------------------------------------
 Axisymmetric simple simulation
 -------------------------------------------------------------------------------
 -------------------------------------------------------------------------------
 D a t e : 09 - 02 - 2019                                 T i m e  : 23:52:24
 -------------------------------------------------------------------------------
 -------------------------------------------------------------------------------

see results in directory: OUTPUT_FILES/

done
Sat Feb 9 23:52:24 AST 2019
