running example: Mon Feb 11 04:03:49 AST 2019

setting up example...


running mesher on 4 processors...


 **********************************************
 *** Specfem 2-D Mesher - MPI version       ***
 **********************************************

 Running Git version of the code corresponding to undefined in the case of old tar ball builds
 dating undefined in the case of old tar ball builds

 Reading the parameter file...

 Title of the simulation: poroelastic semi-infinite homogeneous


 Receiver lines:
   Nb of line sets =            1

 Materials:
   Nb of solid, fluid or porous materials =            1

 --------
 Material #           1  isotropic
 rho_s, kappa_s         =    2650.0000000000000        12200000000.000000
 rho_f, kappa_f, eta_f  =    880.00000000000000        1985000000.0000000        0.0000000000000000
 phi, tortuosity        =   0.10000000000000001        2.0000000000000000
 permxx, permxz, permzz =    1.0000000000000001E-009   0.0000000000000000        1.0000000000000001E-009
 kappa_fr, mu_fr, Qmu   =    9600000000.0000000        5100000000.0000000        9999999999.0000000
 Material is porous
 --------

 Mesh from internal meshing:

 Reading interface data from file: ./DATA/./interfaces.dat
 Reading            2  points for interface            1
 Reading            2  points for interface            2

 Total number of layers in z direction =            1
 There are          200  spectral elements along Z in layer            1

 Total number of spectral elements along X =          200
 Total number of spectral elements along Z =          200

 Regions:
   Nb of regions in the mesh =            1

 ------
 Region            1
 IX from            1  to          200
 IZ from            1  to          200
 Material #            1  isotropic
 Material is poroelastic
 ------
 Total number of spectral elements         =        40000


 Parameter file successfully read

 The mesh contains        40000  elements

 Control elements have            9  nodes

 Source           1
   Position xs, zs =    500.00000000000000        300.00000000000000

   Source type (1=force, 2=moment tensor, 3=Rayleigh wave, 4=plane incident P, 5=plane incident S):            2
   Moment tensor source:
   Mxx of the source =    1.0000000000000000
   Mzz of the source =    1.0000000000000000
   Mxz of the source =    0.0000000000000000

   Time function type (1=Ricker, 2=First derivative, 3=Gaussian, 4=Dirac, 5=Heaviside, 8=Read from file, 9=burst):           3
   Gaussian:
   Frequency, delay =    30.000000000000000        0.0000000000000000

 Reading interface data from file: ./DATA/./interfaces.dat

 Mesh dimensions:
   Min and max value of X in the grid =    0.0000000000000000        1000.0000000000000
   Min and max value of Z in the grid =    0.0000000000000000        1000.0000000000000


 ************ Computing elements load ************
 Number of elastic elements :           0
 Number of acoustic elements :           0
 Number of viscoelastic elements :           0
 Number of viscoacoustic elements :           0
 Number of elastic PML elements :           0
 Number of acoustic PML elements :           0
 Number of viscoelastic PML elements :           0
 Number of viscoacoustic PML elements :           0
 *************************************************


 Partitioning method: SCOTCH

 nedges_coupled (acoustic/elastic)     =            0
 nedges_coupled (acoustic/poroelastic) =            0
 nedges_coupled (poroelastic/elastic)  =            0

 slice            0  has number of spectral elements =        9875
 slice            1  has number of spectral elements =       10125
 slice            2  has number of spectral elements =       10000
 slice            3  has number of spectral elements =       10000

 Position (x,z) of the source =    500.00000000000000        300.00000000000000


 writing the ./DATA/STATIONS file


 There are            1  receivers

 Target positions (x,z) of the            1  receivers

 Receiver            1  =    600.00000000000000        400.00000000000000

 This will be a parallel simulation on            4  processor cores


running solver on 4 processors...


 **********************************************
 **** Specfem 2-D Solver - MPI version     ****
 **********************************************

 Running Git version of the code corresponding to undefined in the case of old tar ball builds
 dating undefined in the case of old tar ball builds

 There are            4  MPI processes
 Processes are numbered from 0 to            3

 There is a total of            4  slices


 NDIM =            2

 NGLLX =            5
 NGLLZ =            5

 using single precision for the calculations

 smallest and largest possible floating-point numbers are:    1.17549435E-38   3.40282347E+38


 -------------------------------------------------------------------------------
 -------------------------------------------------------------------------------
 Program SPECFEM2D:
 -------------------------------------------------------------------------------
 -------------------------------------------------------------------------------
 poroelastic semi-infinite homogeneous
 -------------------------------------------------------------------------------
 -------------------------------------------------------------------------------
 D a t e : 11 - 02 - 2019                                 T i m e  : 04:03:50
 -------------------------------------------------------------------------------
 -------------------------------------------------------------------------------


 C o n t r o l
 =============

     Number of spectral element control nodes. . .(npgeo) =   39921
     Number of space dimensions. . . . . . . . . . (NDIM) =       2


 C o n t r o l
 =============

     Display frequency . . . .(NSTEP_BETWEEN_OUTPUT_INFO) =    200
     Color display . . . . . . . . . . . . . . . (colors) =      1
      == 0     black and white display
      == 1     color display
     Numbered mesh . . . . . . . . . . . . . . .(numbers) =      0
      == 0     do not number the mesh
      == 1     number the mesh


 C o n t r o l
 =============

     Seismograms recording type . . . . . . .(seismotype) = 2
     Angle for first line of receivers. . . . .(anglerec) =   0.00


 C o n t r o l
 =============

     Read external initial field. . . . . .(initialfield) =      F
     Add Bielak conditions (add_Bielak_conditions_bottom) =      F
     Add Bielak conditions .(add_Bielak_conditions_right) =      F
     Add Bielak conditions . .(add_Bielak_conditions_top) =      F
     Add Bielak conditions. .(add_Bielak_conditions_left) =      F
     Attenuation in solid . . .(ATTENUATION_VISCOELASTIC) =      F
     Attenuation in fluid . . (ATTENUATION_VISCOACOUSTIC) =      F
     Save grid in ASCII file or not . (output_grid_ASCII) =      F
     Save a file with total energy or not.(OUTPUT_ENERGY) =      F


 C o n t r o l
 =============

     Vector display type . . . . . . . . .(imagetype_postscript) =      1
     Percentage of cut for vector plots. . . . . . . .(cutsnaps) =  10.00
     Subsampling of velocity model display. (subsamp_postscript) =      1


 I t e r a t i o n s
 ===================

     Number of time iterations . . . . .(NSTEP) =    2500
     Time step increment. . . . . . . . . .(DT) =   1.000000E-04
     Total simulation duration . . . . . (ttot) =   2.500000E-01


     Source Type. . . . . . . . . . . . . . = Moment-tensor
     X-position (meters). . . . . . . . . . =    5.0000000000E+02
     Y-position (meters). . . . . . . . . . =    3.0000000000E+02
     Fundamental frequency (Hz) . . . . . . =    3.0000000000E+01
     Time delay (s) . . . . . . . . . . . . =    0.0000000000E+00
     Multiplying factor . . . . . . . . . . =    1.0000000000E+10
     Mxx. . . . . . . . . . . . . . . . . . =    1.0000000000E+00
     Mzz. . . . . . . . . . . . . . . . . . =    1.0000000000E+00
     Mxz. . . . . . . . . . . . . . . . . . =    0.0000000000E+00
     Onset time. . . . . . =   -4.0000000000000001E-002
     Fundamental period. . =    3.3333333333333333E-002
     Fundamental frequency =    30.000000000000000
     The onset time is ok

     -- Spectral Elements --


     Number of spectral elements . . . . . . . . .  (nspec) =  40000
     Number of control nodes per element . . . . . (ngnod) =      9
     Number of points in X-direction . . . . . . . (NGLLX) =      5
     Number of points in Y-direction . . . . . . . (NGLLZ) =      5
     Number of points per element. . . . . . (NGLLX*NGLLZ) =     25
     Number of points for display . . . . . . (pointsdisp) =      6
     Number of element material sets . . . . . . . (numat) =      1
     Number of acoustic forcing elements (nelem_acforcing) =      0
     Number of acoustic free surf (nelem_acoustic_surface) =      0


 M a t e r i a l   s e t s :   2 D  (p o r o) e l a s t i c i t y
 ======================================================

     Number of material sets . . . . . . (numat) =     1


     ----------------------------------------
     -- Poroelastic isotropic material --
     ----------------------------------------
     Material set number. . . . . . . . (jmat) =     1
     First P-wave velocity. . . . . . . .(cpI) = 2.63902976E+03
     Second P-wave velocity. . . . . . .(cpII) = 9.60957155E+02
     S-wave velocity. . . . . . . . . . . (cs) = 1.44900983E+03


     -------------------------------
     -- Solid phase properties --
     Mass density. . . . . . . . . . (density_s) = 2.65000000E+03
     Poisson's ratio . . . . . . . . (poisson_s) = 3.16546763E-01
     First Lame parameter Lambda. . . (lambda_s) = 8.80000000E+09
     Second Lame parameter Mu. . . . . . .(mu_s) = 5.10000000E+09
     Solid bulk modulus Kappa . . . . .(kappa_s) = 1.22000000E+10
     Young's modulus E . . . . . . .  .(young_s) = 1.34287770E+10


     -------------------------------
     -- Fluid phase properties --
     Mass density. . . . . . . . . . (density_f) = 8.80000000E+02
     Fluid bulk modulus Kappa . . . . .(kappa_f) = 1.98500000E+09
     Fluid viscosity Eta . . . . . . . . (eta_f) = 0.00000000E+00


     -------------------------------
     -- Frame properties --
     First Lame parameter Lambda. . . (lambda_fr) = 6.20000000E+09
     Second Lame parameter Mu. . . . . . .(mu_fr) = 5.10000000E+09
     Frame bulk modulus Kappa . . . . .(kappa_fr) = 9.60000000E+09
     Porosity. . . . . . . . . . . . . . . .(phi) = 1.00000000E-01
     Tortuosity. . . . . . . . . . . . . . . .(c) = 2.00000000E+00
     Permeability xx component. . . . . . . . . . = 1.00000000E-09
     Permeability zx component. . . . . . . . . . = 0.00000000E+00
     Permeability zz component. . . . . . . . . . = 1.00000000E-09
     Qmu_attenuation. . . . . . . . . . . . (Qmu) = 1.00000000E+10


     -------------------------------
     -- Biot coefficients --
     -------------------------------
     D. . . . . . . . . .= 1.84782368E+10
     H. . . . . . . . . .= 1.71614124E+10
     C. . . . . . . . . .= 3.57278149E+09
     M. . . . . . . . . .= 1.67645901E+10
     Characteristic freq = 0.00000000E+00

 Absorbing boundaries:
   using Stacey absorbing boundary conditions

 Number of absorbing elements:          600
   nspec_left   =          200
   nspec_right  =          200
   nspec_bottom =          200
   nspec_top    =            0


 Setting up mesh

 Generating global mesh numbering (fast version)...

 Mesh numbering:
   Total number of elements:        40000

   Total number of acoustic elements           =            0
   Total number of elastic/visco/poro elements =        40000

 Approximate total number of grid points in the mesh
 (with a few duplicates coming from MPI buffers):       643284

 Approximate number of acoustic degrees of freedom in the mesh:            0
 Approximate number of elastic degrees of freedom in the mesh:      1286568
   (there are 2 degrees of freedom per point for elastic elements)

 Approximate total number of degrees of freedom in the mesh
 (sum of the two values above):      1286568

  (for simplicity viscoelastic or poroelastic elements, if any,
   are counted as elastic in the above three estimates;
   in reality they have more degrees of freedom)

 Mesh dimensions:
   Xmin,Xmax of the whole mesh =    0.0000000000000000        1000.0000000000001
   Zmin,Zmax of the whole mesh =    0.0000000000000000        1000.0000000000001

 Domains:
   total number of acoustic elements        =            0
   total number of elastic elements         =            0
   total number of poroelastic elements     =        40000

 Setting up MPI communication arrays

   maximum number of MPI interfaces (for a single slice) =            3

   total MPI interface points:         3370

   master process:
   number of MPI interfaces in acoustic domain    =            0
   number of MPI interfaces in elastic domain     =            0
   number of MPI interfaces in poroelastic domain =            2

   number of outer elements  =          209
   number of inner elements  =         9666

   percentage of outer elements    2.11645508     %
   percentage of inner elements    97.8835449     %

   number of global nodes in outer elements  =         4185
   number of global nodes in inner elements  =       155489

   determining communication phases:
   poroelastic domains:
   total number of outer/inner elements =          836       39164
   total percentage of outer elements    2.08999634     %
   total percentage of inner elements    97.9100037     %

 All mesh setup done successfully

 sources:

 *******************************
  locating moment-tensor source
 *******************************


 Moment-tensor source:
             original x:    500.000000
             original z:    300.000000
 Closest estimate found:    0.00000000      m away
  in rank            2
  in element         6000
  in poroelastic domain
  at xi,gamma coordinates =    1.0000000000000000        1.0000000000000000


 end of moment-tensor source detection


 receivers:

 Total number of receivers =            1


 ********************
  locating receivers
 ********************

 reading receiver information from the ./DATA/STATIONS file


 Station #            1     AA      S0001
             original x:    600.000000
             original z:    400.000000
 Closest estimate found:    0.00000000      m away
  in element         7920
  in rank            3
  at xi,gamma coordinates =    1.0000000000000000        1.0000000000000000
 Distance from source:    141.421356      m


 end of receiver detection

 found a total of            1  receivers, this is okay


 Preparing array allocations
   arrays for poroelastic domains
   wavefield initialization
   done initialization

 Preparing mass matrices
   initializing mass matrices
   inverting mass matrices

 Preparing image coloring

 Checking mesh and stability

 ********
 Model: P (or PI) velocity min,max =    2639.0297580905385        2639.0297580905385
 Model: PII velocity min,max       =    960.95715542029916        960.95715542029916
 Model: S velocity min,max         =    1449.0098264508392        1449.0098264508392
 Model: density min,max            =    2650.0000000000000        2650.0000000000000
 ********


 *********************************************
 *** Verification of simulation parameters ***
 *********************************************

 *** Max grid size =    5.0000000000000000
 *** Min grid size =    5.0000000000000000
 *** Max/min ratio =    1.0000000000000000

 *** Minimum GLL point distance  =   0.86336582323005695
 *** Average GLL point distance  =    1.2500000000000000

 *** Minimum period resolved     =    4.3132902799621177E-003
 *** Maximum frequency resolved  =    231.84157223213427      Hz

 *** Maximum suggested time step                 =    1.6357637131283098E-004
 *** Maximum suggested (Ricker) source frequency =    92.736628892853716

 *** for DT :    1.0000000000000000E-004
 *** Max CFL stability condition of the time scheme based on P wave velocity (must be below about 0.50 or so) =   0.30566761934324671

 ----
 Number of points per wavelength:
 ----
   Source            1
   maximum dominant source frequency =    75.000000000000000      Hz

   Nb pts / lambdaPI_fmax min =    28.1496506
   Nb pts / lambdaPI_fmax max =    28.1496506

   Nb pts / lambdaPII_fmax min =    10.2502098
   Nb pts / lambdaPII_fmax max =    10.2502098

   Nb pts / lambdaS_fmax min =    15.4561052
   Nb pts / lambdaS_fmax max =    15.4561052

 -----------------------------------------

 histogram of min number of points per S wavelength in solid regions:

 there are        40000  elements out of        40000  in solid regions
   (i.e.,    100.000000     % of the total)

 (too small = poor resolution of calculations -
  too big = wasting memory and CPU time)
 (threshold value is around 4.5 points per S wavelength
  in elastic regions and 5.5 per P wavelength in fluid regions):

   15.3015442      -    15.3169994               0     0.00000000      %
   15.3169994      -    15.3324556               0     0.00000000      %
   15.3324556      -    15.3479118               0     0.00000000      %
   15.3479118      -    15.3633680               0     0.00000000      %
   15.3633680      -    15.3788242               0     0.00000000      %
   15.3788242      -    15.3942804               0     0.00000000      %
   15.3942804      -    15.4097366               0     0.00000000      %
   15.4097366      -    15.4251928               0     0.00000000      %
   15.4251928      -    15.4406490               0     0.00000000      %
   15.4406490      -    15.4561052               0     0.00000000      %
   15.4561052      -    15.4715605           40000     100.000000      %
   15.4715605      -    15.4870167               0     0.00000000      %
   15.4870167      -    15.5024729               0     0.00000000      %
   15.5024729      -    15.5179291               0     0.00000000      %
   15.5179291      -    15.5333853               0     0.00000000      %
   15.5333853      -    15.5488415               0     0.00000000      %
   15.5488415      -    15.5642977               0     0.00000000      %
   15.5642977      -    15.5797539               0     0.00000000      %
   15.5797539      -    15.5952101               0     0.00000000      %
   15.5952101      -    15.6106663               0     0.00000000      %

 total percentage =    100.00000000000000       %


 total number of elements in fluid and solid regions =        40000


 Preparing source time function

 Preparing material arrays

 Preparing image coloring
   allocating color image arrays
   locating all the pixels of color images
   total number of image pixels =      2590490
   done locating all the pixels of color images
   coloring image background based on vp

 done, preparation successful


 =========================================
 =  T i m e  e v o l u t i o n  l o o p  =
 =========================================


 Starting time iteration loop ...


 ******************************************************************
Time step number       5   t =  4.000000E-04 s out of    2500
 ******************************************************************
 We have done   0.160064027     % of the total
 Max norm of vector field in solid (poroelastic) =    5.85419213E-11
 Max norm of vector field in fluid (poroelastic) =    1.07419212E-11
 Elapsed time in seconds =   0.15700006484985352
 Elapsed time in hh:mm:ss =      0 h 00 m 00 s
 Mean elapsed time per time step in seconds =    3.1400012969970706E-002
 Time steps remaining =         2495
 Estimated remaining time in seconds =    78.343032360076904
 Estimated remaining time in hh:mm:ss =      0 h 01 m 18 s
 Estimated total run time in seconds =    78.500032424926758
 Estimated total run time in hh:mm:ss =      0 h 01 m 18 s
 The run will finish approximately on: Mon Feb 11, 2019 04:05


 Creating color image of size         1610  x         1690  for time step            5
 drawing scalar image of the forward wavefield displacement...
 Color image maximum amplitude =    4.2341050804362013E-011
 Color image created

 ******************************************************************
Time step number     200   t =    0.0199 s out of    2500
 ******************************************************************
 We have done    7.96318531     % of the total
 Max norm of vector field in solid (poroelastic) =    9.28500185E-07
 Max norm of vector field in fluid (poroelastic) =    1.38497921E-06
 Elapsed time in seconds =    7.8510000705718994
 Elapsed time in hh:mm:ss =      0 h 00 m 07 s
 Mean elapsed time per time step in seconds =    3.9255000352859497E-002
 Time steps remaining =         2300
 Estimated remaining time in seconds =    90.286500811576843
 Estimated remaining time in hh:mm:ss =      0 h 01 m 30 s
 Estimated total run time in seconds =    98.137500882148743
 Estimated total run time in hh:mm:ss =      0 h 01 m 38 s
 The run will finish approximately on: Mon Feb 11, 2019 04:05


 ******************************************************************
Time step number     400   t =    0.0399 s out of    2500
 ******************************************************************
 We have done    15.9663868     % of the total
 Max norm of vector field in solid (poroelastic) =    3.46976594E-05
 Max norm of vector field in fluid (poroelastic) =    5.48414246E-05
 Elapsed time in seconds =    15.770999908447266
 Elapsed time in hh:mm:ss =      0 h 00 m 15 s
 Mean elapsed time per time step in seconds =    3.9427499771118167E-002
 Time steps remaining =         2100
 Estimated remaining time in seconds =    82.797749519348145
 Estimated remaining time in hh:mm:ss =      0 h 01 m 22 s
 Estimated total run time in seconds =    98.568749427795410
 Estimated total run time in hh:mm:ss =      0 h 01 m 38 s
 The run will finish approximately on: Mon Feb 11, 2019 04:05


 Creating color image of size         1610  x         1690  for time step          500
 drawing scalar image of the forward wavefield displacement...
 Color image maximum amplitude =    1.0285589269187767E-005
 Color image created

 ******************************************************************
Time step number     600   t =    0.0599 s out of    2500
 ******************************************************************
 We have done    23.9695873     % of the total
 Max norm of vector field in solid (poroelastic) =    1.07047686E-06
 Max norm of vector field in fluid (poroelastic) =    7.76378602E-06
 Elapsed time in seconds =    24.243999958038330
 Elapsed time in hh:mm:ss =      0 h 00 m 24 s
 Mean elapsed time per time step in seconds =    4.0406666596730548E-002
 Time steps remaining =         1900
 Estimated remaining time in seconds =    76.772666533788041
 Estimated remaining time in hh:mm:ss =      0 h 01 m 16 s
 Estimated total run time in seconds =    101.01666649182637
 Estimated total run time in hh:mm:ss =      0 h 01 m 41 s
 The run will finish approximately on: Mon Feb 11, 2019 04:06


 ******************************************************************
Time step number     800   t =    0.0799 s out of    2500
 ******************************************************************
 We have done    31.9727898     % of the total
 Max norm of vector field in solid (poroelastic) =    1.09476062E-07
 Max norm of vector field in fluid (poroelastic) =    7.29693193E-06
 Elapsed time in seconds =    32.394999980926514
 Elapsed time in hh:mm:ss =      0 h 00 m 32 s
 Mean elapsed time per time step in seconds =    4.0493749976158143E-002
 Time steps remaining =         1700
 Estimated remaining time in seconds =    68.839374959468842
 Estimated remaining time in hh:mm:ss =      0 h 01 m 08 s
 Estimated total run time in seconds =    101.23437494039536
 Estimated total run time in hh:mm:ss =      0 h 01 m 41 s
 The run will finish approximately on: Mon Feb 11, 2019 04:06


 ******************************************************************
Time step number    1000   t =    0.0999 s out of    2500
 ******************************************************************
 We have done    39.9759903     % of the total
 Max norm of vector field in solid (poroelastic) =    8.85822047E-08
 Max norm of vector field in fluid (poroelastic) =    6.83028838E-06
 Elapsed time in seconds =    41.872999906539917
 Elapsed time in hh:mm:ss =      0 h 00 m 41 s
 Mean elapsed time per time step in seconds =    4.1872999906539914E-002
 Time steps remaining =         1500
 Estimated remaining time in seconds =    62.809499859809868
 Estimated remaining time in hh:mm:ss =      0 h 01 m 02 s
 Estimated total run time in seconds =    104.68249976634979
 Estimated total run time in hh:mm:ss =      0 h 01 m 44 s
 The run will finish approximately on: Mon Feb 11, 2019 04:06


 Creating color image of size         1610  x         1690  for time step         1000
 drawing scalar image of the forward wavefield displacement...
 Color image maximum amplitude =    8.8504513939824392E-008
 Color image created

 ******************************************************************
Time step number    1200   t =    0.1199 s out of    2500
 ******************************************************************
 We have done    47.9791908     % of the total
 Max norm of vector field in solid (poroelastic) =    7.63714780E-08
 Max norm of vector field in fluid (poroelastic) =    6.33902891E-06
 Elapsed time in seconds =    51.056999921798706
 Elapsed time in hh:mm:ss =      0 h 00 m 51 s
 Mean elapsed time per time step in seconds =    4.2547499934832256E-002
 Time steps remaining =         1300
 Estimated remaining time in seconds =    55.311749915281929
 Estimated remaining time in hh:mm:ss =      0 h 00 m 55 s
 Estimated total run time in seconds =    106.36874983708063
 Estimated total run time in hh:mm:ss =      0 h 01 m 46 s
 The run will finish approximately on: Mon Feb 11, 2019 04:06


 ******************************************************************
Time step number    1400   t =    0.1399 s out of    2500
 ******************************************************************
 We have done    55.9823914     % of the total
 Max norm of vector field in solid (poroelastic) =    6.81297649E-08
 Max norm of vector field in fluid (poroelastic) =    5.87871182E-06
 Elapsed time in seconds =    60.174000024795532
 Elapsed time in hh:mm:ss =      0 h 01 m 00 s
 Mean elapsed time per time step in seconds =    4.2981428589139663E-002
 Time steps remaining =         1100
 Estimated remaining time in seconds =    47.279571448053630
 Estimated remaining time in hh:mm:ss =      0 h 00 m 47 s
 Estimated total run time in seconds =    107.45357147284916
 Estimated total run time in hh:mm:ss =      0 h 01 m 47 s
 The run will finish approximately on: Mon Feb 11, 2019 04:06


 Creating color image of size         1610  x         1690  for time step         1500
 drawing scalar image of the forward wavefield displacement...
 Color image maximum amplitude =    6.5240001845268125E-008
 Color image created

 ******************************************************************
Time step number    1600   t =    0.1599 s out of    2500
 ******************************************************************
 We have done    63.9855957     % of the total
 Max norm of vector field in solid (poroelastic) =    6.22907095E-08
 Max norm of vector field in fluid (poroelastic) =    5.52239135E-06
 Elapsed time in seconds =    69.046999931335449
 Elapsed time in hh:mm:ss =      0 h 01 m 09 s
 Mean elapsed time per time step in seconds =    4.3154374957084657E-002
 Time steps remaining =          900
 Estimated remaining time in seconds =    38.838937461376190
 Estimated remaining time in hh:mm:ss =      0 h 00 m 38 s
 Estimated total run time in seconds =    107.88593739271164
 Estimated total run time in hh:mm:ss =      0 h 01 m 47 s
 The run will finish approximately on: Mon Feb 11, 2019 04:06


 ******************************************************************
Time step number    1800   t =    0.1799 s out of    2500
 ******************************************************************
 We have done    71.9887924     % of the total
 Max norm of vector field in solid (poroelastic) =    5.74069858E-08
 Max norm of vector field in fluid (poroelastic) =    5.19283776E-06
 Elapsed time in seconds =    77.977999925613403
 Elapsed time in hh:mm:ss =      0 h 01 m 17 s
 Mean elapsed time per time step in seconds =    4.3321111069785222E-002
 Time steps remaining =          700
 Estimated remaining time in seconds =    30.324777748849655
 Estimated remaining time in hh:mm:ss =      0 h 00 m 30 s
 Estimated total run time in seconds =    108.30277767446306
 Estimated total run time in hh:mm:ss =      0 h 01 m 48 s
 The run will finish approximately on: Mon Feb 11, 2019 04:06


 ******************************************************************
Time step number    2000   t =    0.1999 s out of    2500
 ******************************************************************
 We have done    79.9919968     % of the total
 Max norm of vector field in solid (poroelastic) =    5.36406937E-08
 Max norm of vector field in fluid (poroelastic) =    4.92862682E-06
 Elapsed time in seconds =    86.677000045776367
 Elapsed time in hh:mm:ss =      0 h 01 m 26 s
 Mean elapsed time per time step in seconds =    4.3338500022888186E-002
 Time steps remaining =          500
 Estimated remaining time in seconds =    21.669250011444092
 Estimated remaining time in hh:mm:ss =      0 h 00 m 21 s
 Estimated total run time in seconds =    108.34625005722046
 Estimated total run time in hh:mm:ss =      0 h 01 m 48 s
 The run will finish approximately on: Mon Feb 11, 2019 04:06


 Creating color image of size         1610  x         1690  for time step         2000
 drawing scalar image of the forward wavefield displacement...
 Color image maximum amplitude =    5.3621349138666119E-008
 Color image created

 ******************************************************************
Time step number    2200   t =    0.2199 s out of    2500
 ******************************************************************
 We have done    87.9952011     % of the total
 Max norm of vector field in solid (poroelastic) =    5.05932718E-08
 Max norm of vector field in fluid (poroelastic) =    4.70017949E-06
 Elapsed time in seconds =    96.130000114440918
 Elapsed time in hh:mm:ss =      0 h 01 m 36 s
 Mean elapsed time per time step in seconds =    4.3695454597473142E-002
 Time steps remaining =          300
 Estimated remaining time in seconds =    13.108636379241943
 Estimated remaining time in hh:mm:ss =      0 h 00 m 13 s
 Estimated total run time in seconds =    109.23863649368286
 Estimated total run time in hh:mm:ss =      0 h 01 m 49 s
 The run will finish approximately on: Mon Feb 11, 2019 04:06


 ******************************************************************
Time step number    2400   t =    0.2399 s out of    2500
 ******************************************************************
 We have done    95.9983978     % of the total
 Max norm of vector field in solid (poroelastic) =    4.79772204E-08
 Max norm of vector field in fluid (poroelastic) =    4.49699110E-06
 Elapsed time in seconds =    105.21300005912781
 Elapsed time in hh:mm:ss =      0 h 01 m 45 s
 Mean elapsed time per time step in seconds =    4.3838750024636587E-002
 Time steps remaining =          100
 Estimated remaining time in seconds =    4.3838750024636584
 Estimated remaining time in hh:mm:ss =      0 h 00 m 04 s
 Estimated total run time in seconds =    109.59687506159146
 Estimated total run time in hh:mm:ss =      0 h 01 m 49 s
 The run will finish approximately on: Mon Feb 11, 2019 04:06


 ******************************************************************
Time step number    2500   t =    0.2499 s out of    2500
 ******************************************************************
 We have done    100.000000     % of the total
 Max norm of vector field in solid (poroelastic) =    4.67469015E-08
 Max norm of vector field in fluid (poroelastic) =    4.40540589E-06
 Elapsed time in seconds =    109.84599995613098
 Elapsed time in hh:mm:ss =      0 h 01 m 49 s
 Mean elapsed time per time step in seconds =    4.3938399982452393E-002
 Time steps remaining =            0
 Estimated remaining time in seconds =    0.0000000000000000
 Estimated remaining time in hh:mm:ss =      0 h 00 m 00 s
 Estimated total run time in seconds =    109.84599995613098
 Estimated total run time in hh:mm:ss =      0 h 01 m 49 s


 Creating color image of size         1610  x         1690  for time step         2500
 drawing scalar image of the forward wavefield displacement...
 Color image maximum amplitude =    4.6726920999162758E-008
 Color image created

 Total duration of the time loop in seconds =    109.531227      s
 Total number of time steps =         2500
 Average duration of a time step of the time loop =    4.38124910E-02  s
 Total number of spectral elements in the mesh =         9875
     of which         9875  are regular elements
     and            0  are PML elements.
 Average duration of the calculation per spectral element =    4.43670797E-06  s


 Total duration of the timeloop in seconds, measured using
 date and time of the system :    110.039001      s


 -------------------------------------------------------------------------------
 -------------------------------------------------------------------------------
 Program SPECFEM2D:
 -------------------------------------------------------------------------------
 -------------------------------------------------------------------------------
 poroelastic semi-infinite homogeneous
 -------------------------------------------------------------------------------
 -------------------------------------------------------------------------------
 D a t e : 11 - 02 - 2019                                 T i m e  : 04:05:40
 -------------------------------------------------------------------------------
 -------------------------------------------------------------------------------

see results in directory: OUTPUT_FILES/

done
Mon Feb 11 04:05:40 AST 2019
