running example: Sat Feb  9 15:46:01 AST 2019

setting up example...


running mesher on 4 processors...


 **********************************************
 *** Specfem 2-D Mesher - MPI version       ***
 **********************************************

 Running Git version of the code corresponding to undefined in the case of old tar ball builds
 dating undefined in the case of old tar ball builds

 Reading the parameter file...

 Title of the simulation: Shallow water 30 Hz Source middle 4 receiver sets


 Receiver lines:
   Nb of line sets =            1

 Materials:
   Nb of solid, fluid or porous materials =            2

 --------
 Material #           1  isotropic
 rho,cp,cs   =    2000.0000000000000        1680.0000000000000        0.0000000000000000
 Qkappa, Qmu =    10.000000000000000        10.000000000000000
 Material is fluid
 --------
 Material #           2  isotropic
 rho,cp,cs   =    1000.0000000000000        1477.0000000000000        0.0000000000000000
 Qkappa, Qmu =    10.000000000000000        10.000000000000000
 Material is fluid
 --------

 Mesh from external meshing:

 Reading data from external mesh file: MESH/Mesh_SqrCirc
 Total number of spectral elements   :        2942


 Parameter file successfully read

 The mesh contains         2942  elements

 Control elements have            9  nodes

 Source           1
   Position xs, zs =    0.0000000000000000       0.75000000000000000

   Source type (1=force, 2=moment tensor, 3=Rayleigh wave, 4=plane incident P, 5=plane incident S):            1
   Force source:
   Angle of the source (deg) =    0.0000000000000000
   Multiplying factor  =    10000000000.000000

   Time function type (1=Ricker, 2=First derivative, 3=Gaussian, 4=Dirac, 5=Heaviside, 8=Read from file, 9=burst):           1
   Ricker wavelet (second-derivative):
   Frequency, delay =    6000.0000000000000        0.0000000000000000


 Mesh dimensions:
   Min and max value of X in the grid =   -1.0000000000000000        1.0000000000000000
   Min and max value of Z in the grid =   -1.0000000000000000        1.0000000000000000


 ************ Computing elements load ************
 Number of elastic elements :           0
 Number of acoustic elements :        2942
 Number of viscoelastic elements :           0
 Number of elastic PML elements :           0
 Number of acoustic PML elements :           0
 Number of viscoelastic PML elements :           0
 *************************************************


 Partitioning method: SCOTCH

 nedges_coupled (acoustic/elastic)     =            0
 nedges_coupled (acoustic/poroelastic) =            0
 nedges_coupled (poroelastic/elastic)  =            0

 slice            0  has number of spectral elements =         709
 slice            1  has number of spectral elements =         707
 slice            2  has number of spectral elements =         766
 slice            3  has number of spectral elements =         760

 Position (x,z) of the source =    0.0000000000000000       0.75000000000000000


 writing the ./DATA/STATIONS file


 There are           11  receivers

 Target positions (x,z) of the           11  receivers

 Receiver            1  =  -0.50000000000000000       0.50000000000000000
 Receiver            2  =  -0.40000000000000002       0.50000000000000000
 Receiver            3  =  -0.29999999999999999       0.50000000000000000
 Receiver            4  =  -0.20000000000000001       0.50000000000000000
 Receiver            5  =   -9.9999999999999978E-002  0.50000000000000000
 Receiver            6  =    0.0000000000000000       0.50000000000000000
 Receiver            7  =    9.9999999999999978E-002  0.50000000000000000
 Receiver            8  =   0.19999999999999996       0.50000000000000000
 Receiver            9  =   0.30000000000000004       0.50000000000000000
 Receiver           10  =   0.40000000000000002       0.50000000000000000
 Receiver           11  =   0.50000000000000000       0.50000000000000000

 This will be a parallel simulation on            4  processor cores


running solver on 4 processors...


 **********************************************
 **** Specfem 2-D Solver - MPI version     ****
 **********************************************

 Running Git version of the code corresponding to undefined in the case of old tar ball builds
 dating undefined in the case of old tar ball builds

 There are            4  MPI processes
 Processes are numbered from 0 to            3

 There is a total of            4  slices


 NDIM =            2

 NGLLX =            5
 NGLLZ =            5

 using single precision for the calculations

 smallest and largest possible floating-point numbers are:    1.17549435E-38   3.40282347E+38


 -------------------------------------------------------------------------------
 -------------------------------------------------------------------------------
 Program SPECFEM2D:
 -------------------------------------------------------------------------------
 -------------------------------------------------------------------------------
 Shallow water 30 Hz Source middle 4 receiver sets
 -------------------------------------------------------------------------------
 -------------------------------------------------------------------------------
 D a t e : 09 - 02 - 2019                                 T i m e  : 15:46:01
 -------------------------------------------------------------------------------
 -------------------------------------------------------------------------------


 C o n t r o l
 =============

     Number of spectral element control nodes. . .(npgeo) =    2947
     Number of space dimensions. . . . . . . . . . (NDIM) =       2


 C o n t r o l
 =============

     Display frequency . . . .(NSTEP_BETWEEN_OUTPUT_INFO) =    300
     Color display . . . . . . . . . . . . . . . (colors) =      1
      == 0     black and white display
      == 1     color display
     Numbered mesh . . . . . . . . . . . . . . .(numbers) =      0
      == 0     do not number the mesh
      == 1     number the mesh


 C o n t r o l
 =============

     Seismograms recording type . . . . . . .(seismotype) = 4
     Angle for first line of receivers. . . . .(anglerec) =   0.00


 C o n t r o l
 =============

     Read external initial field. . . . . .(initialfield) =      F
     Add Bielak conditions (add_Bielak_conditions_bottom) =      F
     Add Bielak conditions .(add_Bielak_conditions_right) =      F
     Add Bielak conditions . .(add_Bielak_conditions_top) =      F
     Add Bielak conditions. .(add_Bielak_conditions_left) =      F
     Attenuation in solid . . .(ATTENUATION_VISCOELASTIC) =      F
     Attenuation in fluid . . (ATTENUATION_VISCOACOUSTIC) =      F
     Save grid in ASCII file or not . (output_grid_ASCII) =      F
     Save a file with total energy or not.(OUTPUT_ENERGY) =      F


 C o n t r o l
 =============

     Vector display type . . . . . . . . .(imagetype_postscript) =      1
     Percentage of cut for vector plots. . . . . . . .(cutsnaps) =   1.00
     Subsampling of velocity model display. (subsamp_postscript) =      1


 I t e r a t i o n s
 ===================

     Number of time iterations . . . . .(NSTEP) =    2400
     Time step increment. . . . . . . . . .(DT) =   5.000000E-07
     Total simulation duration . . . . . (ttot) =   1.200000E-03


     Source Type. . . . . . . . . . . . . . = Collocated Force
     X-position (meters). . . . . . . . . . =    0.0000000000E+00
     Y-position (meters). . . . . . . . . . =    7.5000000000E-01
     Fundamental frequency (Hz) . . . . . . =    6.0000000000E+03
     Time delay (s) . . . . . . . . . . . . =    0.0000000000E+00
     Multiplying factor . . . . . . . . . . =    1.0000000000E+10
     Angle from vertical direction (deg). . =    0.0000000000E+00

     Onset time. . . . . . =   -1.9999999999999998E-004
     Fundamental period. . =    1.6666666666666666E-004
     Fundamental frequency =    6000.0000000000000
     The onset time is ok

     -- Spectral Elements --


     Number of spectral elements . . . . . . . . .  (nspec) =   2942
     Number of control nodes per element . . . . . (ngnod) =      9
     Number of points in X-direction . . . . . . . (NGLLX) =      5
     Number of points in Y-direction . . . . . . . (NGLLZ) =      5
     Number of points per element. . . . . . (NGLLX*NGLLZ) =     25
     Number of points for display . . . . . . (pointsdisp) =      6
     Number of element material sets . . . . . . . (numat) =      2
     Number of acoustic forcing elements (nelem_acforcing) =      0
     Number of acoustic free surf (nelem_acoustic_surface) =     48


 M a t e r i a l   s e t s :   2 D  (p o r o) e l a s t i c i t y
 ======================================================

     Number of material sets . . . . . . (numat) =     2


     -------------------------------
     -- Acoustic (fluid) material --
     -------------------------------
     Material set number. . . . . . . . (jmat) =     1
     P-wave velocity. . . . . . . . . . . (cp) = 1.68000000E+03
     Mass density. . . . . . . . . . (density) = 2.00000000E+03
     Bulk modulus Kappa . . . . . . . .(kappa) = 5.64480000E+09
     QKappa_attenuation. . . . . . . .(QKappa) = 1.00000000E+01
     Qmu_attenuation. . . . . . . . . . .(Qmu) = 1.00000000E+01


     -------------------------------
     -- Acoustic (fluid) material --
     -------------------------------
     Material set number. . . . . . . . (jmat) =     2
     P-wave velocity. . . . . . . . . . . (cp) = 1.47700000E+03
     Mass density. . . . . . . . . . (density) = 1.00000000E+03
     Bulk modulus Kappa . . . . . . . .(kappa) = 2.18152900E+09
     QKappa_attenuation. . . . . . . .(QKappa) = 1.00000000E+01
     Qmu_attenuation. . . . . . . . . . .(Qmu) = 1.00000000E+01

 Absorbing boundaries:
   using Stacey absorbing boundary conditions

 Number of absorbing elements:          144
   nspec_left   =           30
   nspec_right  =           16
   nspec_bottom =           70
   nspec_top    =           28


 Number of free surface elements:           48

 Setting up mesh

 Generating global mesh numbering (fast version)...

 Mesh numbering:
   Total number of elements:         2942

   Total number of acoustic elements           =         2942
   Total number of elastic/visco/poro elements =            0

 Approximate total number of grid points in the mesh
 (with a few duplicates coming from MPI buffers):        47988

 Approximate number of acoustic degrees of freedom in the mesh:        47988
 Approximate number of elastic degrees of freedom in the mesh:            0
   (there are 2 degrees of freedom per point for elastic elements)

 Approximate total number of degrees of freedom in the mesh
 (sum of the two values above):        47988

  (for simplicity viscoelastic or poroelastic elements, if any,
   are counted as elastic in the above three estimates;
   in reality they have more degrees of freedom)

 Mesh dimensions:
   Xmin,Xmax of the whole mesh =   -1.0000000000000000        1.0000000000000000
   Zmin,Zmax of the whole mesh =   -1.0000000000000000        1.0000000000000000

 Domains:
   total number of acoustic elements        =         2942
   total number of elastic elements         =            0
   total number of poroelastic elements     =            0

 Setting up MPI communication arrays

   maximum number of MPI interfaces (for a single slice) =            3

   total MPI interface points:         1066

   checking acoustic interfaces:
   total number of global acoustic interface points:         1060
   total number of global points assembled by acoustic MPI interfaces:        1060
   interfaces okay

   master process:
   number of MPI interfaces in acoustic domain    =            3
   number of MPI interfaces in elastic domain     =            0
   number of MPI interfaces in poroelastic domain =            0

   number of outer elements  =           58
   number of inner elements  =          651

   percentage of outer elements    8.18053436     %
   percentage of inner elements    91.8194656     %

   number of global nodes in outer elements  =         1165
   number of global nodes in inner elements  =        10629

   determining communication phases:
   acoustic domains:
   total number of outer/inner elements =          259        2683
   total percentage of outer elements    8.80353546     %
   total percentage of inner elements    91.1964645     %

 All mesh setup done successfully

 sources:

 *******************************
  locating force source
 *******************************


 Force source:
             original x:    0.00000000
             original z:   0.750000000
 Closest estimate found:    0.00000000      m away
  in rank            1
  in element          203
  in acoustic domain
  at xi,gamma coordinates =   0.19758026911145277       0.76016794952226374


 end of force source detection


 receivers:

 Total number of receivers =           11


 ********************
  locating receivers
 ********************

 reading receiver information from the ./DATA/STATIONS file


 Station #            1     AA      S0001
             original x:  -0.500000000
             original z:   0.500000000
 Closest estimate found:    0.00000000      m away
  in element          523
  in rank            2
  at xi,gamma coordinates =   -6.5287745286617432E-002 -0.22234610288640530
 Distance from source:   0.559017003      m


 Station #            2     AA      S0002
             original x:  -0.400000006
             original z:   0.500000000
 Closest estimate found:    1.24126709E-16  m away
  in element          312
  in rank            2
  at xi,gamma coordinates =  -0.10516827166233433      -0.38877779277192936
 Distance from source:   0.471699059      m


 Station #            3     AA      S0003
             original x:  -0.300000012
             original z:   0.500000000
 Closest estimate found:    0.00000000      m away
  in element          579
  in rank            2
  at xi,gamma coordinates =   0.11904132298365420       0.11351438295496585
 Distance from source:   0.390512496      m


 Station #            4     AA      S0004
             original x:  -0.200000003
             original z:   0.500000000
 Closest estimate found:    7.85046216E-17  m away
  in element          255
  in rank            1
  at xi,gamma coordinates =  -0.65410600928621521      -0.97635943387889990
 Distance from source:   0.320156217      m


 Station #            5     AA      S0005
             original x:  -0.100000001
             original z:   0.500000000
 Closest estimate found:    0.00000000      m away
  in element          506
  in rank            1
  at xi,gamma coordinates =    2.3067627887492431E-002 -0.11696344938402511
 Distance from source:   0.269258231      m


 Station #            6     AA      S0006
             original x:    0.00000000
             original z:   0.500000000
 Closest estimate found:    0.00000000      m away
  in element          348
  in rank            1
  at xi,gamma coordinates =   0.23438986069409248       0.44981472562349550
 Distance from source:   0.250000000      m


 Station #            7     AA      S0007
             original x:   0.100000001
             original z:   0.500000000
 Closest estimate found:    0.00000000      m away
  in element          338
  in rank            1
  at xi,gamma coordinates =   0.33752455481240745       0.86139559531187382
 Distance from source:   0.269258231      m


 Station #            8     AA      S0008
             original x:   0.200000003
             original z:   0.500000000
 Closest estimate found:    0.00000000      m away
  in element          591
  in rank            1
  at xi,gamma coordinates =   0.17572133468515105       0.54069672144146796
 Distance from source:   0.320156217      m


 Station #            9     AA      S0009
             original x:   0.300000012
             original z:   0.500000000
 Closest estimate found:    0.00000000      m away
  in element          520
  in rank            1
  at xi,gamma coordinates =   0.80414392894190023      -0.13202744097770883
 Distance from source:   0.390512496      m


 Station #           10     AA      S0010
             original x:   0.400000006
             original z:   0.500000000
 Closest estimate found:    5.55111512E-17  m away
  in element          494
  in rank            1
  at xi,gamma coordinates =  -0.13852920693274282      -0.56264704194897064
 Distance from source:   0.471699059      m


 Station #           11     AA      S0011
             original x:   0.500000000
             original z:   0.500000000
 Closest estimate found:    0.00000000      m away
  in element          513
  in rank            1
  at xi,gamma coordinates =   -2.6555979790861821E-002 -0.18328962909257845
 Distance from source:   0.559017003      m


 end of receiver detection

 found a total of           11  receivers, this is okay


 Preparing array allocations
   arrays for acoustic domains
   wavefield initialization
   done initialization

 Preparing mass matrices
   initializing mass matrices
   inverting mass matrices

 Preparing image coloring

 Checking mesh and stability

 ********
 Model: P (or PI) velocity min,max =    1477.0000000000000        1680.0000000000000
 Model: S velocity min,max         =    0.0000000000000000        0.0000000000000000
 Model: density min,max            =    1000.0000000000000        2000.0000000000000
 ********


 *********************************************
 *** Verification of simulation parameters ***
 *********************************************

 *** Max grid size =    6.3721580057308685E-002
 *** Min grid size =    1.6980298024475270E-002
 *** Max/min ratio =    3.7526773655833892

 *** Minimum GLL point distance  =    2.9320417965185606E-003
 *** Average GLL point distance  =    4.2450745061188176E-003

 *** Minimum period resolved     =    5.2210539925144290E-005
 *** Maximum frequency resolved  =    19153.220813914737      Hz

 *** Maximum suggested time step                 =    8.7263148705909536E-007
 *** Maximum suggested (Ricker) source frequency =    7661.2883255658953

 *** for DT :    4.9999999999999998E-007
 *** Max CFL stability condition of the time scheme based on P wave velocity (must be below about 0.50 or so) =   0.28648977685017885

 ----
 Number of points per wavelength:
 ----
   Source            1
   maximum dominant source frequency =    15000.000000000000      Hz

   Nb pts / lambdaP_fmax min =    6.38440704
   Nb pts / lambdaP_fmax max =    19.6361675

   purely fluid regions

 -----------------------------------------

 histogram of min number of points per P wavelength in fluid regions:

 there are         2942  elements out of         2942  in fluid regions
   (i.e.,    100.000000     % of the total)

 (too small = poor resolution of calculations -
  too big = wasting memory and CPU time)
 (threshold value is around 4.5 points per S wavelength
  in elastic regions and 5.5 per P wavelength in fluid regions):

   6.38440704      -    7.04699516              14    0.475866765      %
   7.04699516      -    7.70958281              53     1.80149555      %
   7.70958281      -    8.37217045             128     4.35078192      %
   8.37217045      -    9.03475857             248     8.42963982      %
   9.03475857      -    9.69734669             289     9.82324982      %
   9.69734669      -    10.3599348             358     12.1685925      %
   10.3599348      -    11.0225229             438     14.8878317      %
   11.0225229      -    11.6851110             370     12.5764790      %
   11.6851110      -    12.3476992             299     10.1631546      %
   12.3476992      -    13.0102873             273     9.27940178      %
   13.0102873      -    13.6728745             158     5.37049627      %
   13.6728745      -    14.3354626             106     3.60299110      %
   14.3354626      -    14.9980507              87     2.95717192      %
   14.9980507      -    15.6606388              47     1.59755266      %
   15.6606388      -    16.3232269              34     1.15567636      %
   16.3232269      -    16.9858150              21    0.713800132      %
   16.9858150      -    17.6484032              10    0.339904815      %
   17.6484032      -    18.3109913               4    0.135961935      %
   18.3109913      -    18.9735794               3    0.101971447      %
   18.9735794      -    19.6361675               2     6.79809675E-02  %

 total percentage =    99.999999999999986       %


 total number of elements in fluid and solid regions =         2942


 Preparing source time function

 Preparing material arrays

 Preparing image coloring
   allocating color image arrays
   locating all the pixels of color images
   total number of image pixels =       198470
   done locating all the pixels of color images
   coloring image background based on vp

 done, preparation successful


 =========================================
 =  T i m e  e v o l u t i o n  l o o p  =
 =========================================


 Starting time iteration loop ...


 ******************************************************************
Time step number       5   t =  2.000000E-06 s out of    2400
 ******************************************************************
 We have done   0.166736141     % of the total
 Max absolute value of scalar field in fluid (acoustic) =    8.92147014E-04
 Elapsed time in seconds =    2.0000934600830078E-003
 Elapsed time in hh:mm:ss =      0 h 00 m 00 s
 Mean elapsed time per time step in seconds =    4.0001869201660155E-004
 Time steps remaining =         2395
 Estimated remaining time in seconds =   0.95804476737976074
 Estimated remaining time in hh:mm:ss =      0 h 00 m 00 s
 Estimated total run time in seconds =   0.96004486083984375
 Estimated total run time in hh:mm:ss =      0 h 00 m 00 s
 The run will finish approximately on: Sat Feb 09, 2019 15:46


 Creating color image of size          446  x          468  for time step            5
 drawing scalar image of the forward wavefield pressure...
 Color image maximum amplitude =    656512064.00000000
 Color image created

 Creating color image of size          446  x          468  for time step          100
 drawing scalar image of the forward wavefield pressure...
 Color image maximum amplitude =    30093404160.000000
 Color image created

 Creating color image of size          446  x          468  for time step          200
 drawing scalar image of the forward wavefield pressure...
 Color image maximum amplitude =    391307526144.00000
 Color image created

 ******************************************************************
Time step number     300   t =  1.495000E-04 s out of    2400
 ******************************************************************
 We have done    12.4635267     % of the total
 Max absolute value of scalar field in fluid (acoustic) =    761.488953
 Elapsed time in seconds =   0.15000009536743164
 Elapsed time in hh:mm:ss =      0 h 00 m 00 s
 Mean elapsed time per time step in seconds =    5.0000031789143877E-004
 Time steps remaining =         2100
 Estimated remaining time in seconds =    1.0500006675720215
 Estimated remaining time in hh:mm:ss =      0 h 00 m 01 s
 Estimated total run time in seconds =    1.2000007629394531
 Estimated total run time in hh:mm:ss =      0 h 00 m 01 s
 The run will finish approximately on: Sat Feb 09, 2019 15:46


 Creating color image of size          446  x          468  for time step          300
 drawing scalar image of the forward wavefield pressure...
 Color image maximum amplitude =    1616352641024.0000
 Color image created

 Creating color image of size          446  x          468  for time step          400
 drawing scalar image of the forward wavefield pressure...
 Color image maximum amplitude =    2044590161920.0000
 Color image created

 Creating color image of size          446  x          468  for time step          500
 drawing scalar image of the forward wavefield pressure...
 Color image maximum amplitude =    1071136309248.0000
 Color image created

 ******************************************************************
Time step number     600   t =  2.995000E-04 s out of    2400
 ******************************************************************
 We have done    24.9687366     % of the total
 Max absolute value of scalar field in fluid (acoustic) =    402.289642
 Elapsed time in seconds =   0.30200004577636719
 Elapsed time in hh:mm:ss =      0 h 00 m 00 s
 Mean elapsed time per time step in seconds =    5.0333340962727862E-004
 Time steps remaining =         1800
 Estimated remaining time in seconds =   0.90600013732910156
 Estimated remaining time in hh:mm:ss =      0 h 00 m 00 s
 Estimated total run time in seconds =    1.2080001831054688
 Estimated total run time in hh:mm:ss =      0 h 00 m 01 s
 The run will finish approximately on: Sat Feb 09, 2019 15:46


 Creating color image of size          446  x          468  for time step          600
 drawing scalar image of the forward wavefield pressure...
 Color image maximum amplitude =    691626967040.00000
 Color image created

 Creating color image of size          446  x          468  for time step          700
 drawing scalar image of the forward wavefield pressure...
 Color image maximum amplitude =    904746500096.00000
 Color image created

 Creating color image of size          446  x          468  for time step          800
 drawing scalar image of the forward wavefield pressure...
 Color image maximum amplitude =    782869004288.00000
 Color image created

 ******************************************************************
Time step number     900   t =  4.495000E-04 s out of    2400
 ******************************************************************
 We have done    37.4739456     % of the total
 Max absolute value of scalar field in fluid (acoustic) =    357.740814
 Elapsed time in seconds =   0.45799994468688965
 Elapsed time in hh:mm:ss =      0 h 00 m 00 s
 Mean elapsed time per time step in seconds =    5.0888882742987742E-004
 Time steps remaining =         1500
 Estimated remaining time in seconds =   0.76333324114481615
 Estimated remaining time in hh:mm:ss =      0 h 00 m 00 s
 Estimated total run time in seconds =    1.2213331858317058
 Estimated total run time in hh:mm:ss =      0 h 00 m 01 s
 The run will finish approximately on: Sat Feb 09, 2019 15:46


 Creating color image of size          446  x          468  for time step          900
 drawing scalar image of the forward wavefield pressure...
 Color image maximum amplitude =    705053130752.00000
 Color image created

 Creating color image of size          446  x          468  for time step         1000
 drawing scalar image of the forward wavefield pressure...
 Color image maximum amplitude =    640905904128.00000
 Color image created

 Creating color image of size          446  x          468  for time step         1100
 drawing scalar image of the forward wavefield pressure...
 Color image maximum amplitude =    597534113792.00000
 Color image created

 ******************************************************************
Time step number    1200   t =  5.995000E-04 s out of    2400
 ******************************************************************
 We have done    49.9791565     % of the total
 Max absolute value of scalar field in fluid (acoustic) =    283.835571
 Elapsed time in seconds =   0.65100002288818359
 Elapsed time in hh:mm:ss =      0 h 00 m 00 s
 Mean elapsed time per time step in seconds =    5.4250001907348629E-004
 Time steps remaining =         1200
 Estimated remaining time in seconds =   0.65100002288818359
 Estimated remaining time in hh:mm:ss =      0 h 00 m 00 s
 Estimated total run time in seconds =    1.3020000457763672
 Estimated total run time in hh:mm:ss =      0 h 00 m 01 s
 The run will finish approximately on: Sat Feb 09, 2019 15:46


 Creating color image of size          446  x          468  for time step         1200
 drawing scalar image of the forward wavefield pressure...
 Color image maximum amplitude =    559951183872.00000
 Color image created

 Creating color image of size          446  x          468  for time step         1300
 drawing scalar image of the forward wavefield pressure...
 Color image maximum amplitude =    527884025856.00000
 Color image created

 Creating color image of size          446  x          468  for time step         1400
 drawing scalar image of the forward wavefield pressure...
 Color image maximum amplitude =    500956659712.00000
 Color image created

 ******************************************************************
Time step number    1500   t =  7.495000E-04 s out of    2400
 ******************************************************************
 We have done    62.4843674     % of the total
 Max absolute value of scalar field in fluid (acoustic) =    242.289917
 Elapsed time in seconds =   0.81999993324279785
 Elapsed time in hh:mm:ss =      0 h 00 m 00 s
 Mean elapsed time per time step in seconds =    5.4666662216186523E-004
 Time steps remaining =          900
 Estimated remaining time in seconds =   0.49199995994567869
 Estimated remaining time in hh:mm:ss =      0 h 00 m 00 s
 Estimated total run time in seconds =    1.3119998931884767
 Estimated total run time in hh:mm:ss =      0 h 00 m 01 s
 The run will finish approximately on: Sat Feb 09, 2019 15:46


 Creating color image of size          446  x          468  for time step         1500
 drawing scalar image of the forward wavefield pressure...
 Color image maximum amplitude =    478817353728.00000
 Color image created

 Creating color image of size          446  x          468  for time step         1600
 drawing scalar image of the forward wavefield pressure...
 Color image maximum amplitude =    449134264320.00000
 Color image created

 Creating color image of size          446  x          468  for time step         1700
 drawing scalar image of the forward wavefield pressure...
 Color image maximum amplitude =    367339110400.00000
 Color image created

 ******************************************************************
Time step number    1800   t =  8.995000E-04 s out of    2400
 ******************************************************************
 We have done    74.9895782     % of the total
 Max absolute value of scalar field in fluid (acoustic) =    187.131180
 Elapsed time in seconds =   0.99900007247924805
 Elapsed time in hh:mm:ss =      0 h 00 m 00 s
 Mean elapsed time per time step in seconds =    5.5500004026624893E-004
 Time steps remaining =          600
 Estimated remaining time in seconds =   0.33300002415974939
 Estimated remaining time in hh:mm:ss =      0 h 00 m 00 s
 Estimated total run time in seconds =    1.3320000966389975
 Estimated total run time in hh:mm:ss =      0 h 00 m 01 s
 The run will finish approximately on: Sat Feb 09, 2019 15:46


 Creating color image of size          446  x          468  for time step         1800
 drawing scalar image of the forward wavefield pressure...
 Color image maximum amplitude =    324005593088.00000
 Color image created

 Creating color image of size          446  x          468  for time step         1900
 drawing scalar image of the forward wavefield pressure...
 Color image maximum amplitude =    367478636544.00000
 Color image created

 Creating color image of size          446  x          468  for time step         2000
 drawing scalar image of the forward wavefield pressure...
 Color image maximum amplitude =    337691279360.00000
 Color image created

 ******************************************************************
Time step number    2100   t =    0.0010 s out of    2400
 ******************************************************************
 We have done    87.4947891     % of the total
 Max absolute value of scalar field in fluid (acoustic) =    178.131500
 Elapsed time in seconds =    1.2279999256134033
 Elapsed time in hh:mm:ss =      0 h 00 m 01 s
 Mean elapsed time per time step in seconds =    5.8476186933971582E-004
 Time steps remaining =          300
 Estimated remaining time in seconds =   0.17542856080191474
 Estimated remaining time in hh:mm:ss =      0 h 00 m 00 s
 Estimated total run time in seconds =    1.4034284864153181
 Estimated total run time in hh:mm:ss =      0 h 00 m 01 s
 The run will finish approximately on: Sat Feb 09, 2019 15:46


 Creating color image of size          446  x          468  for time step         2100
 drawing scalar image of the forward wavefield pressure...
 Color image maximum amplitude =    335735914496.00000
 Color image created

 Creating color image of size          446  x          468  for time step         2200
 drawing scalar image of the forward wavefield pressure...
 Color image maximum amplitude =    329768632320.00000
 Color image created

 Creating color image of size          446  x          468  for time step         2300
 drawing scalar image of the forward wavefield pressure...
 Color image maximum amplitude =    322453962752.00000
 Color image created

 ******************************************************************
Time step number    2400   t =    0.0012 s out of    2400
 ******************************************************************
 We have done    100.000000     % of the total
 Max absolute value of scalar field in fluid (acoustic) =    164.537704
 Elapsed time in seconds =    1.4070000648498535
 Elapsed time in hh:mm:ss =      0 h 00 m 01 s
 Mean elapsed time per time step in seconds =    5.8625002702077230E-004
 Time steps remaining =            0
 Estimated remaining time in seconds =    0.0000000000000000
 Estimated remaining time in hh:mm:ss =      0 h 00 m 00 s
 Estimated total run time in seconds =    1.4070000648498535
 Estimated total run time in hh:mm:ss =      0 h 00 m 01 s


 Creating color image of size          446  x          468  for time step         2400
 drawing scalar image of the forward wavefield pressure...
 Color image maximum amplitude =    314981220352.00000
 Color image created

 Total duration of the time loop in seconds =    1.42397594      s
 Total number of time steps =         2400
 Average duration of a time step of the time loop =    5.93323319E-04  s
 Total number of spectral elements in the mesh =          709
     of which          709  are regular elements
     and            0  are PML elements.
 Average duration of the calculation per spectral element =    8.36845288E-07  s


 Total duration of the timeloop in seconds, measured using
 date and time of the system :    1.49000001      s


 -------------------------------------------------------------------------------
 -------------------------------------------------------------------------------
 Program SPECFEM2D:
 -------------------------------------------------------------------------------
 -------------------------------------------------------------------------------
 Shallow water 30 Hz Source middle 4 receiver sets
 -------------------------------------------------------------------------------
 -------------------------------------------------------------------------------
 D a t e : 09 - 02 - 2019                                 T i m e  : 15:46:03
 -------------------------------------------------------------------------------
 -------------------------------------------------------------------------------
 Reading the parameter file ...


 1 = output elements above a certain skewness threshold in OpenDX format
 2 = output a given element in OpenDX format
 3 = do not output any OpenDX file

 enter value:

 start reading the external node file: MESH/Nodes_SqrCirc
 start reading the external mesh file: MESH/Mesh_SqrCirc
 NPOIN =        11961
 NSPEC =         2942
 done reading the external files

 start checking if any element with a negative Jacobian is found
 OK, no element with a negative Jacobian found in the mesh

 start computing the minimum and maximum edge size
 done processing         2942  elements out of         2942

 ------------
 mesh quality parameter definitions:

 equiangle skewness: 0. perfect,  1. bad
 skewness max deviation angle: 0. perfect,  90. bad
 edge aspect ratio: 1. perfect,  above 1. gives stretching factor
 diagonal aspect ratio: 1. perfect,  above 1. gives stretching factor
 ------------

 minimum length of an edge in the whole mesh (m) =    1.6980298024475270E-002  in element         2529

 maximum length of an edge in the whole mesh (m) =    6.3721580057308685E-002  in element          438

 max equiangle skewness =   0.59911897546698678
 in element         2309

 max deviation angle from a right angle (90 degrees) is therefore =    53.920707792028807

 worst angle in the mesh is therefore either    36.079292207971193
 or    143.92070779202879       degrees

 max edge aspect ratio =    2.7690117825564586

 max diagonal aspect ratio =    1.8875627498984682

 creating histogram and statistics of mesh quality

 histogram of skewness (0. good - 1. bad):

   0.00000000      -    5.00000007E-02         392     13.3242693      %
   5.00000007E-02  -   0.100000001             648     22.0258331      %
  0.100000001      -   0.150000006             401     13.6301832      %
  0.150000006      -   0.200000003             411     13.9700880      %
  0.200000003      -   0.250000000             261     8.87151623      %
  0.250000000      -   0.300000012             214     7.27396345      %
  0.300000012      -   0.349999994             204     6.93405867      %
  0.349999994      -   0.400000006             246     8.36165905      %
  0.400000006      -   0.449999988             123     4.18082952      %
  0.449999988      -   0.500000000              31     1.05370498      %
  0.500000000      -   0.550000012               9    0.305914342      %
  0.550000012      -   0.600000024               2     6.79809675E-02  %
  0.600000024      -   0.649999976               0     0.00000000      %
  0.649999976      -   0.699999988               0     0.00000000      %
  0.699999988      -   0.750000000               0     0.00000000      %
  0.750000000      -   0.800000012               0     0.00000000      %
  0.800000012      -   0.850000024               0     0.00000000      %
  0.850000024      -   0.899999976               0     0.00000000      %
  0.899999976      -   0.949999988               0     0.00000000      %
  0.949999988      -    1.00000000               0     0.00000000      %

 total number of elements =         2942


see results in directory: OUTPUT_FILES/

done
Sat Feb 9 15:46:03 AST 2019
