running example: Sat Feb  9 22:40:13 AST 2019

   setting up example...


  running mesher...


 **********************************************
 *** Specfem 2-D Mesher - MPI version       ***
 **********************************************

 Running Git version of the code corresponding to undefined in the case of old tar ball builds
 dating undefined in the case of old tar ball builds

 Reading the parameter file...

 Title of the simulation: Test for 2D attenuation 1999 GJI paper


 Receiver lines:
   Nb of line sets =            1

 Materials:
   Nb of solid, fluid or porous materials =            1

 --------
 Material #           1  isotropic
 rho,cp,cs   =    2000.0000000000000        3297.8490000000002        0.0000000000000000
 Qkappa, Qmu =    22.300000000000001        20.000000000000000
 Material is fluid
 --------

 Mesh from internal meshing:

 Reading interface data from file: ./DATA/interfaces_attenuation_analytic.dat
 Reading            2  points for interface            1
 Reading            2  points for interface            2

 Total number of layers in z direction =            1
 There are           44  spectral elements along Z in layer            1

 Total number of spectral elements along X =           44
 Total number of spectral elements along Z =           44

 Regions:
   Nb of regions in the mesh =            1

 ------
 Region            1
 IX from            1  to           44
 IZ from            1  to           44
 Material #            1  isotropic
 Material is fluid
 vp     =    3297.84912
 vs     =    0.00000000
 rho    =    2000.00000
 Poisson's ratio =   0.500000000
 QKappa =    22.2999992
 Qmu    =    20.0000000
 ------
 Total number of spectral elements         =         1936


 Parameter file successfully read

 The mesh contains         1936  elements

 Control elements have            4  nodes

 Source           1
   Position xs, zs =    1000.0000000000000        1000.0000000000000

   Source type (1=force, 2=moment tensor, 3=Rayleigh wave, 4=plane incident P, 5=plane incident S):            1
   Force source:
   Angle of the source (deg) =    0.0000000000000000
   Multiplying factor  =    1.0000000000000000

   Time function type (1=Ricker, 2=First derivative, 3=Gaussian, 4=Dirac, 5=Heaviside, 8=Read from file, 9=burst):           3
   Gaussian:
   Frequency, delay =    18.000000000000000        0.0000000000000000

 Reading interface data from file: ./DATA/interfaces_attenuation_analytic.dat

 Mesh dimensions:
   Min and max value of X in the grid =    0.0000000000000000        2000.0000000000000
   Min and max value of Z in the grid =    0.0000000000000000        2000.0000000000005

 nedges_coupled (acoustic/elastic)     =            0
 nedges_coupled (acoustic/poroelastic) =            0
 nedges_coupled (poroelastic/elastic)  =            0

 slice            0  has number of spectral elements =        1936

 Position (x,z) of the source =    1000.0000000000000        1000.0000000000000


 writing the ./DATA/STATIONS file


 There are            1  receivers

 Target positions (x,z) of the            1  receivers

 Receiver            1  =    1500.0000000000000        1500.0000000000000

 This will be a serial simulation


  running solver...


 **********************************************
 **** Specfem 2-D Solver - MPI version     ****
 **********************************************

 Running Git version of the code corresponding to undefined in the case of old tar ball builds
 dating undefined in the case of old tar ball builds

 There are            1  MPI processes
 Processes are numbered from 0 to            0

 There is a total of            1  slices


 NDIM =            2

 NGLLX =            5
 NGLLZ =            5

 using single precision for the calculations

 smallest and largest possible floating-point numbers are:    1.17549435E-38   3.40282347E+38


 -------------------------------------------------------------------------------
 -------------------------------------------------------------------------------
 Program SPECFEM2D:
 -------------------------------------------------------------------------------
 -------------------------------------------------------------------------------
 Test for 2D attenuation 1999 GJI paper
 -------------------------------------------------------------------------------
 -------------------------------------------------------------------------------
 D a t e : 09 - 02 - 2019                                 T i m e  : 22:40:13
 -------------------------------------------------------------------------------
 -------------------------------------------------------------------------------


 C o n t r o l
 =============

     Number of spectral element control nodes. . .(npgeo) =    2025
     Number of space dimensions. . . . . . . . . . (NDIM) =       2


 C o n t r o l
 =============

     Display frequency . . . .(NSTEP_BETWEEN_OUTPUT_INFO) =    200
     Color display . . . . . . . . . . . . . . . (colors) =      1
      == 0     black and white display
      == 1     color display
     Numbered mesh . . . . . . . . . . . . . . .(numbers) =      0
      == 0     do not number the mesh
      == 1     number the mesh


 C o n t r o l
 =============

     Seismograms recording type . . . . . . .(seismotype) = 4
     Angle for first line of receivers. . . . .(anglerec) =   0.00


 C o n t r o l
 =============

     Read external initial field. . . . . .(initialfield) =      F
     Add Bielak conditions (add_Bielak_conditions_bottom) =      F
     Add Bielak conditions .(add_Bielak_conditions_right) =      F
     Add Bielak conditions . .(add_Bielak_conditions_top) =      F
     Add Bielak conditions. .(add_Bielak_conditions_left) =      F
     Attenuation in solid . . .(ATTENUATION_VISCOELASTIC) =      F
     Attenuation in fluid . . (ATTENUATION_VISCOACOUSTIC) =      F
     Save grid in ASCII file or not . (output_grid_ASCII) =      F
     Save a file with total energy or not.(OUTPUT_ENERGY) =      F


 C o n t r o l
 =============

     Vector display type . . . . . . . . .(imagetype_postscript) =      1
     Percentage of cut for vector plots. . . . . . . .(cutsnaps) =   1.00
     Subsampling of velocity model display. (subsamp_postscript) =      1


 I t e r a t i o n s
 ===================

     Number of time iterations . . . . .(NSTEP) =    1400
     Time step increment. . . . . . . . . .(DT) =   4.000000E-04
     Total simulation duration . . . . . (ttot) =   5.600000E-01


     Source Type. . . . . . . . . . . . . . = Collocated Force
     X-position (meters). . . . . . . . . . =    1.0000000000E+03
     Y-position (meters). . . . . . . . . . =    1.0000000000E+03
     Fundamental frequency (Hz) . . . . . . =    1.8000000000E+01
     Time delay (s) . . . . . . . . . . . . =    0.0000000000E+00
     Multiplying factor . . . . . . . . . . =    1.0000000000E+00
     Angle from vertical direction (deg). . =    0.0000000000E+00

     Onset time. . . . . . =   -6.6666666666666666E-002
     Fundamental period. . =    5.5555555555555552E-002
     Fundamental frequency =    18.000000000000000
     The onset time is ok

     -- Spectral Elements --


     Number of spectral elements . . . . . . . . .  (nspec) =   1936
     Number of control nodes per element . . . . . (ngnod) =      4
     Number of points in X-direction . . . . . . . (NGLLX) =      5
     Number of points in Y-direction . . . . . . . (NGLLZ) =      5
     Number of points per element. . . . . . (NGLLX*NGLLZ) =     25
     Number of points for display . . . . . . (pointsdisp) =      6
     Number of element material sets . . . . . . . (numat) =      1
     Number of acoustic forcing elements (nelem_acforcing) =      0
     Number of acoustic free surf (nelem_acoustic_surface) =      0


 M a t e r i a l   s e t s :   2 D  (p o r o) e l a s t i c i t y
 ======================================================

     Number of material sets . . . . . . (numat) =     1


     -------------------------------
     -- Acoustic (fluid) material --
     -------------------------------
     Material set number. . . . . . . . (jmat) =     1
     P-wave velocity. . . . . . . . . . . (cp) = 3.29784900E+03
     Mass density. . . . . . . . . . (density) = 2.00000000E+03
     Bulk modulus Kappa . . . . . . . .(kappa) = 2.17516161E+10
     QKappa_attenuation. . . . . . . .(QKappa) = 2.23000000E+01
     Qmu_attenuation. . . . . . . . . . .(Qmu) = 2.00000000E+01

 Absorbing boundaries:
   using PML boundary conditions

 Setting up mesh

 Generating global mesh numbering (fast version)...

 Mesh numbering:
   Total number of elements:         1936

   Total number of acoustic elements           =         1936
   Total number of elastic/visco/poro elements =            0

 Approximate total number of grid points in the mesh
 (with a few duplicates coming from MPI buffers):        31329

 Approximate number of acoustic degrees of freedom in the mesh:        31329
 Approximate number of elastic degrees of freedom in the mesh:            0
   (there are 2 degrees of freedom per point for elastic elements)

 Approximate total number of degrees of freedom in the mesh
 (sum of the two values above):        31329

  (for simplicity viscoelastic or poroelastic elements, if any,
   are counted as elastic in the above three estimates;
   in reality they have more degrees of freedom)

 Mesh dimensions:
   Xmin,Xmax of the whole mesh =    0.0000000000000000        2000.0000000000000
   Zmin,Zmax of the whole mesh =    0.0000000000000000        2000.0000000000005

 Domains:
   total number of acoustic elements        =         1936
   total number of elastic elements         =            0
   total number of poroelastic elements     =            0

 Setting up MPI communication arrays

   maximum number of MPI interfaces (for a single slice) =            0

   This is a single process simulation, no need for MPI communication

   number of outer elements  =            0
   number of inner elements  =         1936

   percentage of outer elements    0.00000000     %
   percentage of inner elements    100.000000     %

   number of global nodes in outer elements  =            0
   number of global nodes in inner elements  =        31329

   determining communication phases:
   acoustic domains:
   total number of outer/inner elements =            0        1936
   total percentage of outer elements    0.00000000     %
   total percentage of inner elements    100.000000     %

 All mesh setup done successfully

 sources:

 *******************************
  locating force source
 *******************************


 Force source:
             original x:    1000.00000
             original z:    1000.00000
 Closest estimate found:    0.00000000      m away
  in rank            0
  in element          946
  in acoustic domain
  at xi,gamma coordinates =    1.0000000000000000        1.0000000000000000


 end of force source detection


 receivers:

 Total number of receivers =            1


 ********************
  locating receivers
 ********************

 reading receiver information from the ./DATA/STATIONS file


 Station #            1     AA      S0001
             original x:    1500.00000
             original z:    1500.00000
 Closest estimate found:    0.00000000      m away
  in element         1441
  in rank            0
  at xi,gamma coordinates =    1.0000000000000000        1.0000000000000000
 Distance from source:    707.106812      m


 end of receiver detection

 found a total of            1  receivers, this is okay


 Preparing array allocations
   arrays for acoustic domains
   wavefield initialization
   done initialization

 Preparing PML
 Total number of PML spectral elements:          492


 Preparing mass matrices
   initializing mass matrices
   inverting mass matrices

 Preparing image coloring

 Checking mesh and stability

 ********
 Model: P (or PI) velocity min,max =    3297.8490000000002        3297.8490000000002
 Model: S velocity min,max         =    0.0000000000000000        0.0000000000000000
 Model: density min,max            =    2000.0000000000000        2000.0000000000000
 ********


 *********************************************
 *** Verification of simulation parameters ***
 *********************************************

 *** Max grid size =    45.454545454545723
 *** Min grid size =    45.454545454545269
 *** Max/min ratio =    1.0000000000000100

 *** Minimum GLL point distance  =    7.8487802111823042
 *** Average GLL point distance  =    11.363636363636317

 *** Minimum period resolved     =    1.7228860938806524E-002
 *** Maximum frequency resolved  =    58.042142399999655      Hz

 *** Maximum suggested time step                 =    1.1899847766198973E-003
 *** Maximum suggested (Ricker) source frequency =    23.216856959999863

 *** for DT :    4.0000000000000002E-004
 *** Max CFL stability condition of the time scheme based on P wave velocity (must be below about 0.50 or so) =   0.16806937696135218

 ----
 Number of points per wavelength:
 ----
   Source            1
   maximum dominant source frequency =    45.000000000000000      Hz

   Nb pts / lambdaP_fmax min =    6.44912672
   Nb pts / lambdaP_fmax max =    6.44912672

   purely fluid regions

 -----------------------------------------

 histogram of min number of points per P wavelength in fluid regions:

 there are         1936  elements out of         1936  in fluid regions
   (i.e.,    100.000000     % of the total)

 (too small = poor resolution of calculations -
  too big = wasting memory and CPU time)
 (threshold value is around 4.5 points per S wavelength
  in elastic regions and 5.5 per P wavelength in fluid regions):

   6.38463545      -    6.39108467               0     0.00000000      %
   6.39108467      -    6.39753389               0     0.00000000      %
   6.39753389      -    6.40398312               0     0.00000000      %
   6.40398312      -    6.41043234               0     0.00000000      %
   6.41043234      -    6.41688108               0     0.00000000      %
   6.41688108      -    6.42333031               0     0.00000000      %
   6.42333031      -    6.42977953               0     0.00000000      %
   6.42977953      -    6.43622875               0     0.00000000      %
   6.43622875      -    6.44267797               0     0.00000000      %
   6.44267797      -    6.44912672             285     14.7210741      %
   6.44912672      -    6.45557594            1651     85.2789230      %
   6.45557594      -    6.46202517               0     0.00000000      %
   6.46202517      -    6.46847439               0     0.00000000      %
   6.46847439      -    6.47492361               0     0.00000000      %
   6.47492361      -    6.48137236               0     0.00000000      %
   6.48137236      -    6.48782158               0     0.00000000      %
   6.48782158      -    6.49427080               0     0.00000000      %
   6.49427080      -    6.50072002               0     0.00000000      %
   6.50072002      -    6.50716925               0     0.00000000      %
   6.50716925      -    6.51361799               0     0.00000000      %

 total percentage =    100.00000000000000       %


 total number of elements in fluid and solid regions =         1936


 Preparing source time function
   saving the source time function in a text file...

 Preparing material arrays

 Preparing image coloring
   allocating color image arrays
   locating all the pixels of color images
   total number of image pixels =        33124
   done locating all the pixels of color images
   coloring image background based on vp

 done, preparation successful


 =========================================
 =  T i m e  e v o l u t i o n  l o o p  =
 =========================================


 Starting time iteration loop ...


 ******************************************************************
Time step number       5   t =    0.0016 s out of    1400
 ******************************************************************
 We have done   0.285918504     % of the total
 Max absolute value of scalar field in fluid (acoustic) =    7.93110477E-13
 Elapsed time in seconds =    1.3000011444091797E-002
 Elapsed time in hh:mm:ss =      0 h 00 m 00 s
 Mean elapsed time per time step in seconds =    2.6000022888183595E-003
 Time steps remaining =         1395
 Estimated remaining time in seconds =    3.6270031929016118
 Estimated remaining time in hh:mm:ss =      0 h 00 m 03 s
 Estimated total run time in seconds =    3.6400032043457036
 Estimated total run time in hh:mm:ss =      0 h 00 m 03 s
 The run will finish approximately on: Sat Feb 09, 2019 22:40


 Creating color image of size          182  x          192  for time step            5
 drawing scalar image of the forward wavefield displacement...
 Color image maximum amplitude =    3.3684095623865521E-017
 Color image created

 ******************************************************************
Time step number     200   t =    0.0796 s out of    1400
 ******************************************************************
 We have done    14.2244463     % of the total
 Max absolute value of scalar field in fluid (acoustic) =    2.17724825E-08
 Elapsed time in seconds =   0.64699983596801758
 Elapsed time in hh:mm:ss =      0 h 00 m 00 s
 Mean elapsed time per time step in seconds =    3.2349991798400878E-003
 Time steps remaining =         1200
 Estimated remaining time in seconds =    3.8819990158081055
 Estimated remaining time in hh:mm:ss =      0 h 00 m 03 s
 Estimated total run time in seconds =    4.5289988517761230
 Estimated total run time in hh:mm:ss =      0 h 00 m 04 s
 The run will finish approximately on: Sat Feb 09, 2019 22:40


 Creating color image of size          182  x          192  for time step          200
 drawing scalar image of the forward wavefield displacement...
 Color image maximum amplitude =    2.4992439720926339E-013
 Color image created

 ******************************************************************
Time step number     400   t =    0.1596 s out of    1400
 ******************************************************************
 We have done    28.5203724     % of the total
 Max absolute value of scalar field in fluid (acoustic) =    5.68216496E-09
 Elapsed time in seconds =    1.2789998054504395
 Elapsed time in hh:mm:ss =      0 h 00 m 01 s
 Mean elapsed time per time step in seconds =    3.1974995136260986E-003
 Time steps remaining =         1000
 Estimated remaining time in seconds =    3.1974995136260986
 Estimated remaining time in hh:mm:ss =      0 h 00 m 03 s
 Estimated total run time in seconds =    4.4764993190765381
 Estimated total run time in hh:mm:ss =      0 h 00 m 04 s
 The run will finish approximately on: Sat Feb 09, 2019 22:40


 Creating color image of size          182  x          192  for time step          400
 drawing scalar image of the forward wavefield displacement...
 Color image maximum amplitude =    9.5621853796758035E-014
 Color image created

 ******************************************************************
Time step number     600   t =    0.2396 s out of    1400
 ******************************************************************
 We have done    42.8162956     % of the total
 Max absolute value of scalar field in fluid (acoustic) =    4.09365741E-09
 Elapsed time in seconds =    1.9189999103546143
 Elapsed time in hh:mm:ss =      0 h 00 m 01 s
 Mean elapsed time per time step in seconds =    3.1983331839243569E-003
 Time steps remaining =          800
 Estimated remaining time in seconds =    2.5586665471394854
 Estimated remaining time in hh:mm:ss =      0 h 00 m 02 s
 Estimated total run time in seconds =    4.4776664574940996
 Estimated total run time in hh:mm:ss =      0 h 00 m 04 s
 The run will finish approximately on: Sat Feb 09, 2019 22:40


 Creating color image of size          182  x          192  for time step          600
 drawing scalar image of the forward wavefield displacement...
 Color image maximum amplitude =    7.0623353375208476E-014
 Color image created

 ******************************************************************
Time step number     800   t =    0.3196 s out of    1400
 ******************************************************************
 We have done    57.1122246     % of the total
 Max absolute value of scalar field in fluid (acoustic) =    3.36330741E-09
 Elapsed time in seconds =    2.5649998188018799
 Elapsed time in hh:mm:ss =      0 h 00 m 02 s
 Mean elapsed time per time step in seconds =    3.2062497735023498E-003
 Time steps remaining =          600
 Estimated remaining time in seconds =    1.9237498641014099
 Estimated remaining time in hh:mm:ss =      0 h 00 m 01 s
 Estimated total run time in seconds =    4.4887496829032898
 Estimated total run time in hh:mm:ss =      0 h 00 m 04 s
 The run will finish approximately on: Sat Feb 09, 2019 22:40


 Creating color image of size          182  x          192  for time step          800
 drawing scalar image of the forward wavefield displacement...
 Color image maximum amplitude =    5.8422817783655997E-014
 Color image created

 ******************************************************************
Time step number    1000   t =    0.3996 s out of    1400
 ******************************************************************
 We have done    71.4081497     % of the total
 Max absolute value of scalar field in fluid (acoustic) =    2.91992386E-09
 Elapsed time in seconds =    3.2070000171661377
 Elapsed time in hh:mm:ss =      0 h 00 m 03 s
 Mean elapsed time per time step in seconds =    3.2070000171661377E-003
 Time steps remaining =          400
 Estimated remaining time in seconds =    1.2828000068664551
 Estimated remaining time in hh:mm:ss =      0 h 00 m 01 s
 Estimated total run time in seconds =    4.4898000240325926
 Estimated total run time in hh:mm:ss =      0 h 00 m 04 s
 The run will finish approximately on: Sat Feb 09, 2019 22:40


 Creating color image of size          182  x          192  for time step         1000
 drawing scalar image of the forward wavefield displacement...
 Color image maximum amplitude =    5.0925061536024412E-014
 Color image created

 ******************************************************************
Time step number    1200   t =    0.4796 s out of    1400
 ******************************************************************
 We have done    85.7040710     % of the total
 Max absolute value of scalar field in fluid (acoustic) =    7.00579705E-10
 Elapsed time in seconds =    3.8519999980926514
 Elapsed time in hh:mm:ss =      0 h 00 m 03 s
 Mean elapsed time per time step in seconds =    3.2099999984105429E-003
 Time steps remaining =          200
 Estimated remaining time in seconds =   0.64199999968210852
 Estimated remaining time in hh:mm:ss =      0 h 00 m 00 s
 Estimated total run time in seconds =    4.4939999977747602
 Estimated total run time in hh:mm:ss =      0 h 00 m 04 s
 The run will finish approximately on: Sat Feb 09, 2019 22:40


 Creating color image of size          182  x          192  for time step         1200
 drawing scalar image of the forward wavefield displacement...
 Color image maximum amplitude =    2.6237807211108432E-015
 Color image created

 ******************************************************************
Time step number    1400   t =    0.5596 s out of    1400
 ******************************************************************
 We have done    100.000000     % of the total
 Max absolute value of scalar field in fluid (acoustic) =    2.18989184E-11
 Elapsed time in seconds =    4.5009999275207520
 Elapsed time in hh:mm:ss =      0 h 00 m 04 s
 Mean elapsed time per time step in seconds =    3.2149999482291086E-003
 Time steps remaining =            0
 Estimated remaining time in seconds =    0.0000000000000000
 Estimated remaining time in hh:mm:ss =      0 h 00 m 00 s
 Estimated total run time in seconds =    4.5009999275207520
 Estimated total run time in hh:mm:ss =      0 h 00 m 04 s


 Creating color image of size          182  x          192  for time step         1400
 drawing scalar image of the forward wavefield displacement...
 Color image maximum amplitude =    6.2501689836258801E-017
 Color image created

 Total duration of the time loop in seconds =    4.50908184      s
 Total number of time steps =         1400
 Average duration of a time step of the time loop =    3.22077284E-03  s
 Total number of spectral elements in the mesh =         1936
     of which         1444  are regular elements
     and          492  are PML elements.
 Average duration of the calculation per spectral element =    1.66362224E-06  s


 Total duration of the timeloop in seconds, measured using
 date and time of the system :    4.51300001      s


 -------------------------------------------------------------------------------
 -------------------------------------------------------------------------------
 Program SPECFEM2D:
 -------------------------------------------------------------------------------
 -------------------------------------------------------------------------------
 Test for 2D attenuation 1999 GJI paper
 -------------------------------------------------------------------------------
 -------------------------------------------------------------------------------
 D a t e : 09 - 02 - 2019                                 T i m e  : 22:40:18
 -------------------------------------------------------------------------------
 -------------------------------------------------------------------------------

see results in directory: OUTPUT_FILES/

done
Sat Feb  9 22:40:18 AST 2019
