running example: Sun Feb 10 19:09:10 AST 2019

   setting up example...


  running mesher...


 **********************************************
 *** Specfem 2-D Mesher - MPI version       ***
 **********************************************

 Running Git version of the code corresponding to undefined in the case of old tar ball builds
 dating undefined in the case of old tar ball builds

 Reading the parameter file...

 Title of the simulation: Test for 2D attenuation 1999 GJI paper


 Receiver lines:
   Nb of line sets =            1

 Materials:
   Nb of solid, fluid or porous materials =            1

 --------
 Material #           1  isotropic
 rho,cp,cs   =    2000.0000000000000        3297.8490000000002        2222.5360000000001
 Qkappa, Qmu =    22.300000000000001        20.000000000000000
 Material is solid
 --------

 Mesh from internal meshing:

 Reading interface data from file: ./DATA/interfaces_attenuation_analytic.dat
 Reading            2  points for interface            1
 Reading            2  points for interface            2

 Total number of layers in z direction =            1
 There are           44  spectral elements along Z in layer            1

 Total number of spectral elements along X =           44
 Total number of spectral elements along Z =           44

 Regions:
   Nb of regions in the mesh =            1

 ------
 Region            1
 IX from            1  to           44
 IZ from            1  to           44
 Material #            1  isotropic
 Material is solid
 vp     =    3297.84912
 vs     =    2222.53589
 rho    =    2000.00000
 Poisson's ratio =    8.39329287E-02
 QKappa =    22.2999992
 Qmu    =    20.0000000
 ------
 Total number of spectral elements         =         1936


 Parameter file successfully read

 The mesh contains         1936  elements

 Control elements have            4  nodes

 Source           1
   Position xs, zs =    1000.0000000000000        1000.0000000000000

   Source type (1=force, 2=moment tensor, 3=Rayleigh wave, 4=plane incident P, 5=plane incident S):            1
   Force source:
   Angle of the source (deg) =    0.0000000000000000
   Multiplying factor  =    1.0000000000000000

   Time function type (1=Ricker, 2=First derivative, 3=Gaussian, 4=Dirac, 5=Heaviside, 8=Read from file, 9=burst):           1
   Ricker wavelet (second-derivative):
   Frequency, delay =    18.000000000000000        0.0000000000000000

 Reading interface data from file: ./DATA/interfaces_attenuation_analytic.dat

 Mesh dimensions:
   Min and max value of X in the grid =    0.0000000000000000        2000.0000000000000
   Min and max value of Z in the grid =    0.0000000000000000        2000.0000000000005

 nedges_coupled (acoustic/elastic)     =            0
 nedges_coupled (acoustic/poroelastic) =            0
 nedges_coupled (poroelastic/elastic)  =            0

 slice            0  has number of spectral elements =        1936

 Position (x,z) of the source =    1000.0000000000000        1000.0000000000000


 writing the ./DATA/STATIONS file


 There are            1  receivers

 Target positions (x,z) of the            1  receivers

 Receiver            1  =    1500.0000000000000        1500.0000000000000

 This will be a serial simulation


  running solver...


 **********************************************
 **** Specfem 2-D Solver - MPI version     ****
 **********************************************

 Running Git version of the code corresponding to undefined in the case of old tar ball builds
 dating undefined in the case of old tar ball builds

 There are            1  MPI processes
 Processes are numbered from 0 to            0

 There is a total of            1  slices


 NDIM =            2

 NGLLX =            5
 NGLLZ =            5

 using single precision for the calculations

 smallest and largest possible floating-point numbers are:    1.17549435E-38   3.40282347E+38


 -------------------------------------------------------------------------------
 -------------------------------------------------------------------------------
 Program SPECFEM2D:
 -------------------------------------------------------------------------------
 -------------------------------------------------------------------------------
 Test for 2D attenuation 1999 GJI paper
 -------------------------------------------------------------------------------
 -------------------------------------------------------------------------------
 D a t e : 10 - 02 - 2019                                 T i m e  : 19:09:11
 -------------------------------------------------------------------------------
 -------------------------------------------------------------------------------


 C o n t r o l
 =============

     Number of spectral element control nodes. . .(npgeo) =    2025
     Number of space dimensions. . . . . . . . . . (NDIM) =       2


 C o n t r o l
 =============

     Display frequency . . . .(NSTEP_BETWEEN_OUTPUT_INFO) =    200
     Color display . . . . . . . . . . . . . . . (colors) =      1
      == 0     black and white display
      == 1     color display
     Numbered mesh . . . . . . . . . . . . . . .(numbers) =      0
      == 0     do not number the mesh
      == 1     number the mesh


 C o n t r o l
 =============

     Seismograms recording type . . . . . . .(seismotype) = 1
     Angle for first line of receivers. . . . .(anglerec) =   0.00


 C o n t r o l
 =============

     Read external initial field. . . . . .(initialfield) =      F
     Add Bielak conditions (add_Bielak_conditions_bottom) =      F
     Add Bielak conditions .(add_Bielak_conditions_right) =      F
     Add Bielak conditions . .(add_Bielak_conditions_top) =      F
     Add Bielak conditions. .(add_Bielak_conditions_left) =      F
     Attenuation in solid . . .(ATTENUATION_VISCOELASTIC) =      T
     Attenuation in fluid . . (ATTENUATION_VISCOACOUSTIC) =      F
     Save grid in ASCII file or not . (output_grid_ASCII) =      F
     Save a file with total energy or not.(OUTPUT_ENERGY) =      F


 C o n t r o l
 =============

     Vector display type . . . . . . . . .(imagetype_postscript) =      1
     Percentage of cut for vector plots. . . . . . . .(cutsnaps) =   1.00
     Subsampling of velocity model display. (subsamp_postscript) =      1


 I t e r a t i o n s
 ===================

     Number of time iterations . . . . .(NSTEP) =    1400
     Time step increment. . . . . . . . . .(DT) =   4.000000E-04
     Total simulation duration . . . . . (ttot) =   5.600000E-01


     Source Type. . . . . . . . . . . . . . = Collocated Force
     X-position (meters). . . . . . . . . . =    1.0000000000E+03
     Y-position (meters). . . . . . . . . . =    1.0000000000E+03
     Fundamental frequency (Hz) . . . . . . =    1.8000000000E+01
     Time delay (s) . . . . . . . . . . . . =    0.0000000000E+00
     Multiplying factor . . . . . . . . . . =    1.0000000000E+00
     Angle from vertical direction (deg). . =    0.0000000000E+00

     Onset time. . . . . . =   -6.6666666666666666E-002
     Fundamental period. . =    5.5555555555555552E-002
     Fundamental frequency =    18.000000000000000
     The onset time is ok

     -- Spectral Elements --


     Number of spectral elements . . . . . . . . .  (nspec) =   1936
     Number of control nodes per element . . . . . (ngnod) =      4
     Number of points in X-direction . . . . . . . (NGLLX) =      5
     Number of points in Y-direction . . . . . . . (NGLLZ) =      5
     Number of points per element. . . . . . (NGLLX*NGLLZ) =     25
     Number of points for display . . . . . . (pointsdisp) =      6
     Number of element material sets . . . . . . . (numat) =      1
     Number of acoustic forcing elements (nelem_acforcing) =      0
     Number of acoustic free surf (nelem_acoustic_surface) =      0


 M a t e r i a l   s e t s :   2 D  (p o r o) e l a s t i c i t y
 ======================================================

     Number of material sets . . . . . . (numat) =     1


     ----------------------------------------
     -- Elastic (solid) isotropic material --
     ----------------------------------------
     Material set number. . . . . . . . (jmat) =     1
     P-wave velocity. . . . . . . . . . . (cp) = 3.29784900E+03
     S-wave velocity. . . . . . . . . . . (cs) = 2.22253600E+03
     Mass density. . . . . . . . . . (density) = 2.00000000E+03
     Poisson's ratio. . . . . . . . .(poisson) = 8.39329252E-02
     First Lame parameter Lambda. . . (lambda) = 1.99295097E+09
     Second Lame parameter Mu. . . . . . .(mu) = 9.87933254E+09
     Bulk modulus Kappa . . . . . . . .(kappa) = 1.18722835E+10
     Young's modulus E. . . . . . . . .(young) = 2.32022130E+10
     QKappa_attenuation .  . . . . . .(QKappa) = 2.23000000E+01
     Qmu_attenuation . . . . . . . . . . (Qmu) = 2.00000000E+01

 Absorbing boundaries:
   using PML boundary conditions

 Setting up mesh

 Generating global mesh numbering (fast version)...

 Mesh numbering:
   Total number of elements:         1936

   Total number of acoustic elements           =            0
   Total number of elastic/visco/poro elements =         1936

 Approximate total number of grid points in the mesh
 (with a few duplicates coming from MPI buffers):        31329

 Approximate number of acoustic degrees of freedom in the mesh:            0
 Approximate number of elastic degrees of freedom in the mesh:        62658
   (there are 2 degrees of freedom per point for elastic elements)

 Approximate total number of degrees of freedom in the mesh
 (sum of the two values above):        62658

  (for simplicity viscoelastic or poroelastic elements, if any,
   are counted as elastic in the above three estimates;
   in reality they have more degrees of freedom)

 Mesh dimensions:
   Xmin,Xmax of the whole mesh =    0.0000000000000000        2000.0000000000000
   Zmin,Zmax of the whole mesh =    0.0000000000000000        2000.0000000000005

 Domains:
   total number of acoustic elements        =            0
   total number of elastic elements         =         1936
   total number of poroelastic elements     =            0

 Setting up MPI communication arrays

   maximum number of MPI interfaces (for a single slice) =            0

   This is a single process simulation, no need for MPI communication

   number of outer elements  =            0
   number of inner elements  =         1936

   percentage of outer elements    0.00000000     %
   percentage of inner elements    100.000000     %

   number of global nodes in outer elements  =            0
   number of global nodes in inner elements  =        31329

   determining communication phases:
   elastic domains:
   total number of outer/inner elements =            0        1936
   total percentage of outer elements    0.00000000     %
   total percentage of inner elements    100.000000     %

 All mesh setup done successfully

 sources:

 *******************************
  locating force source
 *******************************


 Force source:
             original x:    1000.00000
             original z:    1000.00000
 Closest estimate found:    0.00000000      m away
  in rank            0
  in element          946
  in elastic domain
  at xi,gamma coordinates =    1.0000000000000000        1.0000000000000000


 end of force source detection


 receivers:

 Total number of receivers =            1


 ********************
  locating receivers
 ********************

 reading receiver information from the ./DATA/STATIONS file


 Station #            1     AA      S0001
             original x:    1500.00000
             original z:    1500.00000
 Closest estimate found:    0.00000000      m away
  in element         1441
  in rank            0
  at xi,gamma coordinates =    1.0000000000000000        1.0000000000000000
 Distance from source:    707.106812      m


 end of receiver detection

 found a total of            1  receivers, this is okay


 Preparing array allocations
   arrays for elastic domains
   wavefield initialization
   done initialization

 Preparing PML
 Total number of PML spectral elements:          492


 Preparing attenuation in viscoelastic or viscoacoustic parts of the model:
   using external model for Qkappa and Qmu:  F
   reading velocity at f0                 :  F
   using an attenuation reference frequency of    18.000000000000000      Hz

 Preparing mass matrices
   initializing mass matrices
   inverting mass matrices

 Preparing image coloring

 Checking mesh and stability

 ********
 Model: P (or PI) velocity min,max =    3297.8490000000002        3297.8490000000002
 Model: S velocity min,max         =    2222.5360000000001        2222.5360000000001
 Model: density min,max            =    2000.0000000000000        2000.0000000000000
 ********


 *********************************************
 *** Verification of simulation parameters ***
 *********************************************

 *** Max grid size =    45.454545454545723
 *** Min grid size =    45.454545454545269
 *** Max/min ratio =    1.0000000000000100

 *** Minimum GLL point distance  =    7.8487802111823042
 *** Average GLL point distance  =    11.363636363636317

 *** Minimum period resolved     =    2.5564572100601361E-002
 *** Maximum frequency resolved  =    39.116633599999773      Hz

 *** Maximum suggested time step                 =    1.1899847766198973E-003
 *** Maximum suggested (Ricker) source frequency =    15.646653439999909

 *** for DT :    4.0000000000000002E-004
 *** Max CFL stability condition of the time scheme based on P wave velocity (must be below about 0.50 or so) =   0.16806937696135218

 ----
 Number of points per wavelength:
 ----
   Source            1
   maximum dominant source frequency =    45.000000000000000      Hz

   Nb pts / lambdaP_fmax min =    6.44912672
   Nb pts / lambdaP_fmax max =    6.44912672

   Nb pts / lambdaS_fmax min =    4.34629250
   Nb pts / lambdaS_fmax max =    4.34629250

 -----------------------------------------

 histogram of min number of points per S wavelength in solid regions:

 there are         1936  elements out of         1936  in solid regions
   (i.e.,    100.000000     % of the total)

 (too small = poor resolution of calculations -
  too big = wasting memory and CPU time)
 (threshold value is around 4.5 points per S wavelength
  in elastic regions and 5.5 per P wavelength in fluid regions):

   4.30282974      -    4.30717611               0     0.00000000      %
   4.30717611      -    4.31152248               0     0.00000000      %
   4.31152248      -    4.31586838               0     0.00000000      %
   4.31586838      -    4.32021475               0     0.00000000      %
   4.32021475      -    4.32456112               0     0.00000000      %
   4.32456112      -    4.32890749               0     0.00000000      %
   4.32890749      -    4.33325386               0     0.00000000      %
   4.33325386      -    4.33760023               0     0.00000000      %
   4.33760023      -    4.34194613               0     0.00000000      %
   4.34194613      -    4.34629250             285     14.7210741      %
   4.34629250      -    4.35063887            1651     85.2789230      %
   4.35063887      -    4.35498524               0     0.00000000      %
   4.35498524      -    4.35933161               0     0.00000000      %
   4.35933161      -    4.36367798               0     0.00000000      %
   4.36367798      -    4.36802387               0     0.00000000      %
   4.36802387      -    4.37237024               0     0.00000000      %
   4.37237024      -    4.37671661               0     0.00000000      %
   4.37671661      -    4.38106298               0     0.00000000      %
   4.38106298      -    4.38540936               0     0.00000000      %
   4.38540936      -    4.38975573               0     0.00000000      %

 total percentage =    100.00000000000000       %


 total number of elements in fluid and solid regions =         1936


 Preparing source time function
   saving the source time function in a text file...

 Preparing material arrays

 Preparing image coloring
   allocating color image arrays
   locating all the pixels of color images
   total number of image pixels =        33124
   done locating all the pixels of color images
   coloring image background based on vp

 done, preparation successful


 =========================================
 =  T i m e  e v o l u t i o n  l o o p  =
 =========================================


 Starting time iteration loop ...


 ******************************************************************
Time step number       5   t =    0.0016 s out of    1400
 ******************************************************************
 We have done   0.285918504     % of the total
 Max norm of vector field in solid (elastic) =    4.19650959E-16
 Elapsed time in seconds =    5.9000015258789062E-002
 Elapsed time in hh:mm:ss =      0 h 00 m 00 s
 Mean elapsed time per time step in seconds =    1.1800003051757813E-002
 Time steps remaining =         1395
 Estimated remaining time in seconds =    16.461004257202148
 Estimated remaining time in hh:mm:ss =      0 h 00 m 16 s
 Estimated total run time in seconds =    16.520004272460938
 Estimated total run time in hh:mm:ss =      0 h 00 m 16 s
 The run will finish approximately on: Sun Feb 10, 2019 19:09


 Creating color image of size          182  x          192  for time step            5
 drawing scalar image of the forward wavefield displacement...
 Color image maximum amplitude =    1.0634038740357163E-017
 Color image created

 ******************************************************************
Time step number     200   t =    0.0796 s out of    1400
 ******************************************************************
 We have done    14.2244463     % of the total
 Max norm of vector field in solid (elastic) =    2.14844306E-11
 Elapsed time in seconds =    3.0770001411437988
 Elapsed time in hh:mm:ss =      0 h 00 m 03 s
 Mean elapsed time per time step in seconds =    1.5385000705718995E-002
 Time steps remaining =         1200
 Estimated remaining time in seconds =    18.462000846862793
 Estimated remaining time in hh:mm:ss =      0 h 00 m 18 s
 Estimated total run time in seconds =    21.539000988006592
 Estimated total run time in hh:mm:ss =      0 h 00 m 21 s
 The run will finish approximately on: Sun Feb 10, 2019 19:10


 Creating color image of size          182  x          192  for time step          200
 drawing scalar image of the forward wavefield displacement...
 Color image maximum amplitude =    1.8779184804418330E-011
 Color image created

 ******************************************************************
Time step number     400   t =    0.1596 s out of    1400
 ******************************************************************
 We have done    28.5203724     % of the total
 Max norm of vector field in solid (elastic) =    4.84333667E-12
 Elapsed time in seconds =    6.0600001811981201
 Elapsed time in hh:mm:ss =      0 h 00 m 06 s
 Mean elapsed time per time step in seconds =    1.5150000452995300E-002
 Time steps remaining =         1000
 Estimated remaining time in seconds =    15.150000452995300
 Estimated remaining time in hh:mm:ss =      0 h 00 m 15 s
 Estimated total run time in seconds =    21.210000634193420
 Estimated total run time in hh:mm:ss =      0 h 00 m 21 s
 The run will finish approximately on: Sun Feb 10, 2019 19:10


 Creating color image of size          182  x          192  for time step          400
 drawing scalar image of the forward wavefield displacement...
 Color image maximum amplitude =    4.8687477660625075E-012
 Color image created

 ******************************************************************
Time step number     600   t =    0.2396 s out of    1400
 ******************************************************************
 We have done    42.8162956     % of the total
 Max norm of vector field in solid (elastic) =    2.87035912E-12
 Elapsed time in seconds =    9.1349999904632568
 Elapsed time in hh:mm:ss =      0 h 00 m 09 s
 Mean elapsed time per time step in seconds =    1.5224999984105429E-002
 Time steps remaining =          800
 Estimated remaining time in seconds =    12.179999987284344
 Estimated remaining time in hh:mm:ss =      0 h 00 m 12 s
 Estimated total run time in seconds =    21.314999977747600
 Estimated total run time in hh:mm:ss =      0 h 00 m 21 s
 The run will finish approximately on: Sun Feb 10, 2019 19:10


 Creating color image of size          182  x          192  for time step          600
 drawing scalar image of the forward wavefield displacement...
 Color image maximum amplitude =    2.8544246879925200E-012
 Color image created

 ******************************************************************
Time step number     800   t =    0.3196 s out of    1400
 ******************************************************************
 We have done    57.1122246     % of the total
 Max norm of vector field in solid (elastic) =    1.88621254E-12
 Elapsed time in seconds =    12.266000032424927
 Elapsed time in hh:mm:ss =      0 h 00 m 12 s
 Mean elapsed time per time step in seconds =    1.5332500040531159E-002
 Time steps remaining =          600
 Estimated remaining time in seconds =    9.1995000243186951
 Estimated remaining time in hh:mm:ss =      0 h 00 m 09 s
 Estimated total run time in seconds =    21.465500056743622
 Estimated total run time in hh:mm:ss =      0 h 00 m 21 s
 The run will finish approximately on: Sun Feb 10, 2019 19:10


 Creating color image of size          182  x          192  for time step          800
 drawing scalar image of the forward wavefield displacement...
 Color image maximum amplitude =    1.8811386527849514E-012
 Color image created

 ******************************************************************
Time step number    1000   t =    0.3996 s out of    1400
 ******************************************************************
 We have done    71.4081497     % of the total
 Max norm of vector field in solid (elastic) =    1.33239687E-12
 Elapsed time in seconds =    15.524000167846680
 Elapsed time in hh:mm:ss =      0 h 00 m 15 s
 Mean elapsed time per time step in seconds =    1.5524000167846679E-002
 Time steps remaining =          400
 Estimated remaining time in seconds =    6.2096000671386715
 Estimated remaining time in hh:mm:ss =      0 h 00 m 06 s
 Estimated total run time in seconds =    21.733600234985353
 Estimated total run time in hh:mm:ss =      0 h 00 m 21 s
 The run will finish approximately on: Sun Feb 10, 2019 19:10


 Creating color image of size          182  x          192  for time step         1000
 drawing scalar image of the forward wavefield displacement...
 Color image maximum amplitude =    1.3312767771847568E-012
 Color image created

 ******************************************************************
Time step number    1200   t =    0.4796 s out of    1400
 ******************************************************************
 We have done    85.7040710     % of the total
 Max norm of vector field in solid (elastic) =    9.55089523E-13
 Elapsed time in seconds =    18.742000102996826
 Elapsed time in hh:mm:ss =      0 h 00 m 18 s
 Mean elapsed time per time step in seconds =    1.5618333419164021E-002
 Time steps remaining =          200
 Estimated remaining time in seconds =    3.1236666838328042
 Estimated remaining time in hh:mm:ss =      0 h 00 m 03 s
 Estimated total run time in seconds =    21.865666786829632
 Estimated total run time in hh:mm:ss =      0 h 00 m 21 s
 The run will finish approximately on: Sun Feb 10, 2019 19:10


 Creating color image of size          182  x          192  for time step         1200
 drawing scalar image of the forward wavefield displacement...
 Color image maximum amplitude =    9.5192122644904085E-013
 Color image created

 ******************************************************************
Time step number    1400   t =    0.5596 s out of    1400
 ******************************************************************
 We have done    100.000000     % of the total
 Max norm of vector field in solid (elastic) =    6.09466741E-13
 Elapsed time in seconds =    21.748000144958496
 Elapsed time in hh:mm:ss =      0 h 00 m 21 s
 Mean elapsed time per time step in seconds =    1.5534285817827497E-002
 Time steps remaining =            0
 Estimated remaining time in seconds =    0.0000000000000000
 Estimated remaining time in hh:mm:ss =      0 h 00 m 00 s
 Estimated total run time in seconds =    21.748000144958496
 Estimated total run time in hh:mm:ss =      0 h 00 m 21 s


 Creating color image of size          182  x          192  for time step         1400
 drawing scalar image of the forward wavefield displacement...
 Color image maximum amplitude =    5.9817611571479450E-013
 Color image created

 Total duration of the time loop in seconds =    21.7400360      s
 Total number of time steps =         1400
 Average duration of a time step of the time loop =    1.55285969E-02  s
 Total number of spectral elements in the mesh =         1936
     of which         1444  are regular elements
     and          492  are PML elements.
 Average duration of the calculation per spectral element =    8.02096929E-06  s


 Total duration of the timeloop in seconds, measured using
 date and time of the system :    21.7709999      s


 -------------------------------------------------------------------------------
 -------------------------------------------------------------------------------
 Program SPECFEM2D:
 -------------------------------------------------------------------------------
 -------------------------------------------------------------------------------
 Test for 2D attenuation 1999 GJI paper
 -------------------------------------------------------------------------------
 -------------------------------------------------------------------------------
 D a t e : 10 - 02 - 2019                                 T i m e  : 19:09:32
 -------------------------------------------------------------------------------
 -------------------------------------------------------------------------------

see results in directory: OUTPUT_FILES/

done
Sun Feb 10 19:09:32 AST 2019
