running example: Mon Oct  4 21:01:57 +03 2021

setting up example...

DATA/Par_file -> DATA/Par_file.bak
Changed simulation_type to 1 and save_forward = .true. in Par_file 

running mesher...


 **********************************************
 *** Specfem 2-D Mesher - MPI version       ***
 **********************************************

 Running Git version of the code corresponding to undefined in the case of old tar ball builds
 dating undefined in the case of old tar ball builds

 Reading the parameter file...

 Title of the simulation: Test of SPECFEM2D with curved interfaces


 Receiver lines:
   Nb of line sets =            2

 Materials:
   Nb of solid, fluid or porous materials =            4

 --------
 Material #           1  isotropic
 rho,cp,cs   =    2700.0000000000000        3000.0000000000000        1732.0509999999999     
 Qkappa, Qmu =    9999.0000000000000        9999.0000000000000     
 Material is solid
 --------
 Material #           2  isotropic
 rho,cp,cs   =    2500.0000000000000        2700.0000000000000        0.0000000000000000     
 Qkappa, Qmu =    9999.0000000000000        9999.0000000000000     
 Material is fluid
 --------
 Material #           3  isotropic
 rho,cp,cs   =    2200.0000000000000        2500.0000000000000        1443.3750000000000     
 Qkappa, Qmu =    9999.0000000000000        9999.0000000000000     
 Material is solid
 --------
 Material #           4  isotropic
 rho,cp,cs   =    2200.0000000000000        2200.0000000000000        1343.3750000000000     
 Qkappa, Qmu =    9999.0000000000000        9999.0000000000000     
 Material is solid
 --------


 Mesh from internal meshing:

 Reading interface data from file: ./DATA/./interfaces_simple_topo_curved.dat
 Reading            2  points for interface            1
 Reading            7  points for interface            2
 Reading            9  points for interface            3
 Reading            8  points for interface            4

 Total number of layers in z direction =            3
 There are           20  spectral elements along Z in layer            1
 There are           20  spectral elements along Z in layer            2
 There are           20  spectral elements along Z in layer            3

 Total number of spectral elements along X =           80
 Total number of spectral elements along Z =           60

 Regions:
   Nb of regions in the mesh =            4

 ------
 Region            1
 IX from            1  to           80
 IZ from            1  to           20
 Material #            1  isotropic
 Material is solid
 vp     =    3000.00000    
 vs     =    1732.05103    
 rho    =    2700.00000    
 Poisson's ratio =   0.249999911    
 QKappa =    9999.00000    
 Qmu    =    9999.00000    
 ------
 Region            2
 IX from            1  to           80
 IZ from           21  to           40
 Material #            2  isotropic
 Material is fluid
 vp     =    2700.00000    
 vs     =    0.00000000    
 rho    =    2500.00000    
 Poisson's ratio =   0.500000000    
 QKappa =    9999.00000    
 Qmu    =    9999.00000    
 ------
 Region            3
 IX from            1  to           80
 IZ from           41  to           60
 Material #            3  isotropic
 Material is solid
 vp     =    2500.00000    
 vs     =    1443.37500    
 rho    =    2200.00000    
 Poisson's ratio =   0.250000358    
 QKappa =    9999.00000    
 Qmu    =    9999.00000    
 ------
 Region            4
 IX from           60  to           70
 IZ from           21  to           40
 Material #            4  isotropic
 Material is solid
 vp     =    2200.00000    
 vs     =    1343.37500    
 rho    =    2200.00000    
 Poisson's ratio =   0.202726185    
 QKappa =    9999.00000    
 Qmu    =    9999.00000    
 *************************************
 Warning: Element range from this region is overwriting material numbers previously set on elements.
          This indicates that your region range is overlapping the region for material            2
          If your regions should be exclusive, please fix the region definitions in the Par_file!
 *************************************
 ------

 Parameter file successfully read 


 Mesh from internal meshing:
   Total number of spectral elements         =         4800

 PML mesh elements:
   Total number of PML elements =            0

 The mesh contains         4800  elements

 Control elements have            9  nodes

 Reading in SOURCE file...

 Source           1
   Position xs, zs =    2500.0000000000000        2500.0000000000000     

   Source type (1=force, 2=moment tensor):            1
   Force source:
   Angle of the source (deg) =    0.0000000000000000     

   Time function type (1=Ricker, 2=First derivative, 3=Gaussian, 4=Dirac, 5=Heaviside, 6,7=ocean type, 8=Read from file, 9=burst, 10=Sinusoidal, 11=Ormsby):           1
   Ricker wavelet (second-derivative):
   Frequency, delay =    10.000000000000000        0.0000000000000000     
   Multiplying factor  =    10000000000.000000     

 all sources are okay

 Normals to surface not needed

 Node coordinates:

 reading node coordinates from interfaces...

 Mesh surfaces:
   determining acoustic free surface...
   number of acoustic elements with free surface =            0

   determining absorbing boundary surfaces...
   number of elements with absorbing boundaries =          200


 Mesh dimensions: 
   Min and max value of X in the grid =    0.0000000000000000        4000.0000000000000     
   Min and max value of Z in the grid =    0.0000000000000000        3355.8363405549972     


 Saving the grid in Gnuplot format...

 drawing horizontal lines of the grid
 drawing vertical lines of the grid
 Grid saved in Gnuplot format...

 Mesh partitioning:
   decomposing mesh using NPROC =            1

 Graph construction:
   graph adjacency done

 Coupled interfaces:
 nedges_coupled (acoustic/elastic)     =          178
 nedges_coupled (acoustic/poroelastic) =            0
 nedges_coupled (poroelastic/elastic)  =            0

 Local numbering:
   NPROC:            1
   number of elements:         4800

 decompose mesh all done

 Absorbing boundaries:
   nedge_bound   :          200
   nelemabs_merge:          200

 Saving databases:
   database file: ./OUTPUT_FILES/Database00000.bin
   slice            0  has number of spectral elements =        4800

   VTK mesh files:
   written file: ./OUTPUT_FILES//mesh_materials.vtk
   written file: ./OUTPUT_FILES//mesh_partition_number.vtk
   done

 creating STATIONS file...

 writing the ./DATA/STATIONS file


 There are           22  receivers

 Target positions (x,z) of the           22  receivers

 Receiver            1  =    300.00000000000000        2997.7298908673174     
 Receiver            2  =    640.00000000000000        3008.0430011257899     
 Receiver            3  =    980.00000000000000        3090.8224062492818     
 Receiver            4  =    1320.0000000000000        3283.0303922802987     
 Receiver            5  =    1660.0000000000000        3347.8768862033312     
 Receiver            6  =    2000.0000000000000        3250.0000000000000     
 Receiver            7  =    2340.0000000000000        3197.3138031016656     
 Receiver            8  =    2680.0000000000000        3150.9619872716830     
 Receiver            9  =    3020.0000000000000        3086.5939051292362     
 Receiver           10  =    3360.0000000000000        3042.8523748190692     
 Receiver           11  =    3700.0000000000000        3020.6886767662263     
 Receiver           12  =    2500.0000000000000        2500.0000000000000     
 Receiver           13  =    2500.0000000000000        2250.0000000000000     
 Receiver           14  =    2500.0000000000000        2000.0000000000000     
 Receiver           15  =    2500.0000000000000        1750.0000000000000     
 Receiver           16  =    2500.0000000000000        1500.0000000000000     
 Receiver           17  =    2500.0000000000000        1250.0000000000000     
 Receiver           18  =    2500.0000000000000        1000.0000000000000     
 Receiver           19  =    2500.0000000000000        750.00000000000000     
 Receiver           20  =    2500.0000000000000        500.00000000000000     
 Receiver           21  =    2500.0000000000000        250.00000000000000     
 Receiver           22  =    2500.0000000000000        0.0000000000000000     

 This will be a serial simulation


running solver...


 **********************************************
 **** Specfem 2-D Solver - MPI version     ****
 **********************************************

 Running Git version of the code corresponding to undefined in the case of old tar ball builds
 dating undefined in the case of old tar ball builds

 There are            1  MPI processes
 Processes are numbered from 0 to            0

 There is a total of            1  slices


 NDIM =            2

 NGLLX =            5
 NGLLZ =            5

 using single precision for the calculations

 smallest and largest possible floating-point numbers are:    1.17549435E-38   3.40282347E+38

 Reading the parameter file...

 Title of the simulation: Test of SPECFEM2D with curved interfaces


 Parameter file successfully read 

 Reading in SOURCE file...

 Source           1
   Position xs, zs =    2500.0000000000000        2500.0000000000000     

   Source type (1=force, 2=moment tensor):            1
   Force source:
   Angle of the source (deg) =    0.0000000000000000     

   Time function type (1=Ricker, 2=First derivative, 3=Gaussian, 4=Dirac, 5=Heaviside, 6,7=ocean type, 8=Read from file, 9=burst, 10=Sinusoidal, 11=Ormsby):           1
   Ricker wavelet (second-derivative):
   Frequency, delay =    10.000000000000000        0.0000000000000000     
   Multiplying factor  =    10000000000.000000     

 all sources are okay



 -------------------------------------------------------------------------------
 -------------------------------------------------------------------------------
 Program SPECFEM2D: 
 -------------------------------------------------------------------------------
 -------------------------------------------------------------------------------
 Test of SPECFEM2D with curved interfaces
 -------------------------------------------------------------------------------
 -------------------------------------------------------------------------------
 D a t e : 04 - 10 - 2021                                 T i m e  : 21:01:58
 -------------------------------------------------------------------------------
 -------------------------------------------------------------------------------


 C o n t r o l
 =============

     Number of spectral element control nodes. . .(npgeo) =   19481
     Number of space dimensions. . . . . . . . . . (NDIM) =       2


 C o n t r o l
 =============

     Display frequency . . . .(NSTEP_BETWEEN_OUTPUT_INFO) =    100
     Color display . . . . . . . . . . . . . . . (colors) =      1
      == 0     black and white display              
      == 1     color display                        
     Numbered mesh . . . . . . . . . . . . . . .(numbers) =      0
      == 0     do not number the mesh               
      == 1     number the mesh                      


 C o n t r o l
 =============

     Seismograms recording type . . . . . . .(seismotype) = 1
     Angle for first line of receivers. . . . .(anglerec) =   0.00


 C o n t r o l
 =============

     Read external initial field. . . . . .(initialfield) =      F
     Add Bielak conditions (add_Bielak_conditions_bottom) =      F
     Add Bielak conditions .(add_Bielak_conditions_right) =      F
     Add Bielak conditions . .(add_Bielak_conditions_top) =      F
     Add Bielak conditions. .(add_Bielak_conditions_left) =      F
     Attenuation in solid . . .(ATTENUATION_VISCOELASTIC) =      F
     Attenuation in fluid . . (ATTENUATION_VISCOACOUSTIC) =      F
     Save grid in ASCII file or not . (output_grid_ASCII) =      T
     Save a file with total energy or not.(OUTPUT_ENERGY) =      F


 C o n t r o l
 =============

     Vector display type . . . . . . . . .(imagetype_postscript) =      1
     Percentage of cut for vector plots. . . . . . . .(cutsnaps) =   1.00
     Subsampling of velocity model display. (subsamp_postscript) =      1


 I t e r a t i o n s 
 ===================

     Number of time iterations . . . . .(NSTEP) =    1600
     Time step increment. . . . . . . . . .(DT) =   1.100000E-03
     Total simulation duration . . . . . (ttot) =   1.760000E+00


 reading mesh databases:
 reading nodal coordinates...

 -- Spectral Elements --


     Number of spectral elements . . . . . . . . .  (nspec) =   4800
     Number of control nodes per element . . . . . (ngnod) =      9
     Number of points in X-direction . . . . . . . (NGLLX) =      5
     Number of points in Y-direction . . . . . . . (NGLLZ) =      5
     Number of points per element. . . . . . (NGLLX*NGLLZ) =     25
     Number of points for display . . . . . . (pointsdisp) =      6
     Number of element material sets . . . . . . . (numat) =      4
     Number of acoustic forcing elements (nelem_acforcing) =      0
     Number of acoustic free surf (nelem_acoustic_surface) =      0

 reading attenuation setup...
 reading material properties..


 M a t e r i a l   s e t s :   2 D  (p o r o) e l a s t i c i t y
 ======================================================

     Number of material sets . . . . . . (numat) =     4


     ----------------------------------------
     -- Elastic (solid) isotropic material --
     ----------------------------------------
     Material set number. . . . . . . . (jmat) =     1
     P-wave velocity. . . . . . . . . . . (cp) = 3.00000000E+03
     S-wave velocity. . . . . . . . . . . (cs) = 1.73205100E+03
     Mass density. . . . . . . . . . (density) = 2.70000000E+03
     Poisson's ratio. . . . . . . . .(poisson) = 2.49999917E-01
     First Lame parameter Lambda. . . (lambda) = 8.09999640E+09
     Second Lame parameter Mu. . . . . . .(mu) = 8.10000180E+09
     Bulk modulus Kappa . . . . . . . .(kappa) = 1.61999982E+10
     Young's modulus E. . . . . . . . .(young) = 2.08285751E+10
     QKappa_attenuation .  . . . . . .(QKappa) = 9.99900000E+03
     Qmu_attenuation . . . . . . . . . . (Qmu) = 9.99900000E+03



     -------------------------------
     -- Acoustic (fluid) material --
     -------------------------------
     Material set number. . . . . . . . (jmat) =     2
     P-wave velocity. . . . . . . . . . . (cp) = 2.70000000E+03
     Mass density. . . . . . . . . . (density) = 2.50000000E+03
     Bulk modulus Kappa . . . . . . . .(kappa) = 1.82250000E+10
     QKappa_attenuation. . . . . . . .(QKappa) = 9.99900000E+03
     Qmu_attenuation. . . . . . . . . . .(Qmu) = 9.99900000E+03



     ----------------------------------------
     -- Elastic (solid) isotropic material --
     ----------------------------------------
     Material set number. . . . . . . . (jmat) =     3
     P-wave velocity. . . . . . . . . . . (cp) = 2.50000000E+03
     S-wave velocity. . . . . . . . . . . (cs) = 1.44337500E+03
     Mass density. . . . . . . . . . (density) = 2.20000000E+03
     Poisson's ratio. . . . . . . . .(poisson) = 2.50000350E-01
     First Lame parameter Lambda. . . (lambda) = 4.58334188E+09
     Second Lame parameter Mu. . . . . . .(mu) = 4.58332906E+09
     Bulk modulus Kappa . . . . . . . .(kappa) = 9.16667094E+09
     Young's modulus E. . . . . . . . .(young) = 1.17857057E+10
     QKappa_attenuation .  . . . . . .(QKappa) = 9.99900000E+03
     Qmu_attenuation . . . . . . . . . . (Qmu) = 9.99900000E+03



     ----------------------------------------
     -- Elastic (solid) isotropic material --
     ----------------------------------------
     Material set number. . . . . . . . (jmat) =     4
     P-wave velocity. . . . . . . . . . . (cp) = 2.20000000E+03
     S-wave velocity. . . . . . . . . . . (cs) = 1.34337500E+03
     Mass density. . . . . . . . . . (density) = 2.20000000E+03
     Poisson's ratio. . . . . . . . .(poisson) = 2.02726178E-01
     First Lame parameter Lambda. . . (lambda) = 2.70751188E+09
     Second Lame parameter Mu. . . . . . .(mu) = 3.97024406E+09
     Bulk modulus Kappa . . . . . . . .(kappa) = 6.67775594E+09
     Young's modulus E. . . . . . . . .(young) = 9.94066572E+09
     QKappa_attenuation .  . . . . . .(QKappa) = 9.99900000E+03
     Qmu_attenuation . . . . . . . . . . (Qmu) = 9.99900000E+03

 reading interfaces informations...
   number of interfaces         =            0
 reading absorbing boundary...
   number of absorbing elements =          200

   any absorbing boundary flag  =  T
   PML boundary flag            =  F
   Stacey boundary flag         =  T


 Absorbing boundaries:
   using Stacey absorbing boundary conditions

   Total number of absorbing elements:          200
     nspec_left   =           60
     nspec_right  =           60
     nspec_bottom =           80
     nspec_top    =            0


 reading acoustic forcing...
   acoustic forcing                             =  F
   number of acoustic forcing boundary elements =            0
 reading free surface information...
   number of acoustic free surface boundary elements =            0
 reading coupling surfaces...
   number of fluid-solid edges  =          178
   number of fluid-poro  edges  =            0
   number of solid-poro  edges  =            0
 reading tangential curves...
   number of tangential curve nodes =            0
 reading axial elements...
   number of axial elements     =            0

 done reading mesh databases


 Setting up mesh

 Generating global mesh numbering (fast version)...

 Mesh numbering:
   Total number of elements:         4800

   Total number of acoustic elements           =         1380
   Total number of elastic/visco/poro elements =         3420

 Approximate total number of grid points in the mesh
 (with a few duplicates coming from MPI buffers):        77361

 Approximate number of acoustic degrees of freedom in the mesh:        22241
 Approximate number of elastic degrees of freedom in the mesh:       110239
   (there are 2 degrees of freedom per point for elastic elements)

 Approximate total number of degrees of freedom in the mesh
 (sum of the two values above):       132480

  (for simplicity viscoelastic or poroelastic elements, if any,
   are counted as elastic in the above three estimates;
   in reality they have more degrees of freedom)

 Mesh dimensions:
   Xmin,Xmax of the whole mesh =    0.0000000000000000        4000.0000000000005     
   Zmin,Zmax of the whole mesh =    0.0000000000000000        3355.8363405549972     


 Saving the grid in an ASCII text file...


 Generating gnuplot meshes...

 Material properties:
   MODEL                 : default
   nspec                 :         4800
   assign external model :  F

   setting up material arrays
   all material arrays done

 Domains:
   total number of acoustic elements        =         1380
   total number of elastic elements         =         3420
   total number of poroelastic elements     =            0

 Mixed acoustic/elastic simulation

   Beginning of fluid/solid edge detection
   Checking fluid/solid edge topology...
   End of fluid/solid edge detection

 excluding common points between acoustic absorbing edges and acoustic/elastic matching interfaces, if any

 Setting up MPI communication arrays

   maximum number of MPI interfaces (for a single slice) =            0

   This is a single process simulation, no need for MPI communication

   number of outer elements  =            0
   number of inner elements  =         4800

   percentage of outer elements    0.00000000     %
   percentage of inner elements    100.000000     %

   number of global nodes in outer elements  =            0
   number of global nodes in inner elements  =        77361

   determining communication phases:
   elastic domains:
   total number of outer/inner elements =            0        3420
   total percentage of outer elements    0.00000000     %
   total percentage of inner elements    100.000000     %

   acoustic domains:
   total number of outer/inner elements =            0        1380
   total percentage of outer elements    0.00000000     %
   total percentage of inner elements    100.000000     %

 All mesh setup done successfully

 sources:
   Total number of sources:            1


   Setting parameters for source           1

     Source Type. . . . . . . . . . . . . . = Collocated Force
     X-position (meters). . . . . . . . . . =    2.5000000000E+03
     Y-position (meters). . . . . . . . . . =    2.5000000000E+03
     Fundamental frequency (Hz) . . . . . . =    1.0000000000E+01
     Time delay (s) . . . . . . . . . . . . =    0.0000000000E+00
     Multiplying factor . . . . . . . . . . =    1.0000000000E+10
     Angle from vertical direction (deg). . =    0.0000000000E+00


   Source:            1
     Onset time. . . . . . =  -0.12000000000000000     
     Fundamental period. . =   0.10000000000000001     
     Fundamental frequency =    10.000000000000000     
     The onset time is ok

 Source:            1
 *******************************
  locating force source
 *******************************

 Force source:
             original x:    2500.00000    
             original z:    2500.00000    
 Closest estimate found:    0.00000000      m away
  in rank            0
  in element         3890
  in elastic domain
  at xi,gamma coordinates =    1.0000000000000000       -5.0847457627118647E-002


 end of force source detection


 receivers:

 Total number of receivers =           22


 ********************
  locating receivers
 ********************

 reading receiver information from the ./DATA/STATIONS file


 Station #            1     AA      S0001                           
             original x:    300.000000    
             original z:    2997.72998    
 Closest estimate found:    5.68434189E-14  m away
  in rank            0
  in element         4726
  in elastic domain
  at xi,gamma coordinates =    1.0000000000000000        1.0000000013196262     
 Distance from source:    2255.60083      m


 Station #            2     AA      S0002                           
             original x:    640.000000    
             original z:    3008.04297    
 Closest estimate found:    5.68434189E-13  m away
  in rank            0
  in element         4733
  in elastic domain
  at xi,gamma coordinates =   0.59999999999999210       0.99990160152470553     
 Distance from source:    1928.13586      m


 Station #            3     AA      S0003                           
             original x:    980.000000    
             original z:    3090.82251    
 Closest estimate found:    4.54747351E-13  m away
  in rank            0
  in element         4740
  in elastic domain
  at xi,gamma coordinates =   0.20000000000000001       0.99995735754260540     
 Distance from source:    1630.78845      m


 Station #            4     AA      S0004                           
             original x:    1320.00000    
             original z:    3283.03027    
 Closest estimate found:    0.00000000      m away
  in rank            0
  in element         4747
  in elastic domain
  at xi,gamma coordinates =  -0.20000000000000001       0.99988142896111831     
 Distance from source:    1416.16968      m


 Station #            5     AA      S0005                           
             original x:    1660.00000    
             original z:    3347.87695    
 Closest estimate found:    0.00000000      m away
  in rank            0
  in element         4754
  in elastic domain
  at xi,gamma coordinates =  -0.59999999999999121        1.0001975779557832     
 Distance from source:    1193.52222      m


 Station #            6     AA      S0006                           
             original x:    2000.00000    
             original z:    3250.00000    
 Closest estimate found:    0.00000000      m away
  in rank            0
  in element         4760
  in elastic domain
  at xi,gamma coordinates =    1.0000000000000000        1.0000000000000000     
 Distance from source:    901.387817      m


 Station #            7     AA      S0007                           
             original x:    2340.00000    
             original z:    3197.31372    
 Closest estimate found:    0.00000000      m away
  in rank            0
  in element         4767
  in elastic domain
  at xi,gamma coordinates =   0.60000000000003673        1.0000902964320597     
 Distance from source:    715.434509      m


 Station #            8     AA      S0008                           
             original x:    2680.00000    
             original z:    3150.96191    
 Closest estimate found:    6.43109860E-13  m away
  in rank            0
  in element         4774
  in elastic domain
  at xi,gamma coordinates =   0.20000000000001819       0.99997538602697766     
 Distance from source:    675.389893      m


 Station #            9     AA      S0009                           
             original x:    3020.00000    
             original z:    3086.59399    
 Closest estimate found:    6.43109860E-13  m away
  in rank            0
  in element         4781
  in elastic domain
  at xi,gamma coordinates =  -0.20000000000000004       0.99999615023784183     
 Distance from source:    783.895691      m


 Station #           10     AA      S0010                           
             original x:    3360.00000    
             original z:    3042.85229    
 Closest estimate found:    0.00000000      m away
  in rank            0
  in element         4788
  in elastic domain
  at xi,gamma coordinates =  -0.60000000000001752       0.99999230657136795     
 Distance from source:    1016.99988      m


 Station #           11     AA      S0011                           
             original x:    3700.00000    
             original z:    3020.68872    
 Closest estimate found:    4.54747351E-13  m away
  in rank            0
  in element         4794
  in elastic domain
  at xi,gamma coordinates =    1.0000000000000000        1.0000000013165316     
 Distance from source:    1308.09656      m


 Station #           12     AA      S0012                           
             original x:    2500.00000    
             original z:    2500.00000    
 Closest estimate found:    0.00000000      m away
  in rank            0
  in element         3890
  in elastic domain
  at xi,gamma coordinates =    1.0000000000000000       -5.0847457627118647E-002
 Distance from source:    0.00000000      m


 Station #           13     AA      S0013                           
             original x:    2500.00000    
             original z:    2250.00000    
 Closest estimate found:    0.00000000      m away
  in rank            0
  in element         3570
  in elastic domain
  at xi,gamma coordinates =    1.0000000000000207      -0.52542372881354726     
 Distance from source:    250.000000      m


 Station #           14     AA      S0014                           
             original x:    2500.00000    
             original z:    2000.00000    
 Closest estimate found:    0.00000000      m away
  in rank            0
  in element         3170
  in acoustic domain
  at xi,gamma coordinates =    1.0000000000000000        1.0000000000000000     
 Distance from source:    500.000000      m


 Station #           15     AA      S0015                           
             original x:    2500.00000    
             original z:    1750.00000    
 Closest estimate found:    0.00000000      m away
  in rank            0
  in element         2690
  in acoustic domain
  at xi,gamma coordinates =    1.0000000000000000       0.49999999999999895     
 Distance from source:    750.000000      m


 Station #           16     AA      S0016                           
             original x:    2500.00000    
             original z:    1500.00000    
 Closest estimate found:    0.00000000      m away
  in rank            0
  in element         2210
  in acoustic domain
  at xi,gamma coordinates =    1.0000000000000000        0.0000000000000000     
 Distance from source:    1000.00000      m


 Station #           17     AA      S0017                           
             original x:    2500.00000    
             original z:    1250.00000    
 Closest estimate found:    0.00000000      m away
  in rank            0
  in element         1730
  in acoustic domain
  at xi,gamma coordinates =    1.0000000000000029      -0.49999999999999750     
 Distance from source:    1250.00000      m


 Station #           18     AA      S0018                           
             original x:    2500.00000    
             original z:    1000.00000    
 Closest estimate found:    0.00000000      m away
  in rank            0
  in element         1331
  in elastic domain
  at xi,gamma coordinates =  -0.99999999999999534       0.33333333333333531     
 Distance from source:    1500.00000      m


 Station #           19     AA      S0019                           
             original x:    2500.00000    
             original z:    750.000000    
 Closest estimate found:    0.00000000      m away
  in rank            0
  in element         1010
  in elastic domain
  at xi,gamma coordinates =    1.0000000000000000        0.0000000000000000     
 Distance from source:    1750.00000      m


 Station #           20     AA      S0020                           
             original x:    2500.00000    
             original z:    500.000000    
 Closest estimate found:    0.00000000      m away
  in rank            0
  in element          691
  in elastic domain
  at xi,gamma coordinates =   -1.0000000000000075      -0.33333333333333309     
 Distance from source:    2000.00000      m


 Station #           21     AA      S0021                           
             original x:    2500.00000    
             original z:    250.000000    
 Closest estimate found:    2.84217094E-14  m away
  in rank            0
  in element          370
  in elastic domain
  at xi,gamma coordinates =    1.0000000000000180      -0.66666666666666297     
 Distance from source:    2250.00000      m


 Station #           22     AA      S0022                           
             original x:    2500.00000    
             original z:    0.00000000    
 Closest estimate found:    0.00000000      m away
  in rank            0
  in element           50
  in elastic domain
  at xi,gamma coordinates =    1.0000000000000000       -1.0000000000000000     
 Distance from source:    2500.00000      m


 end of receiver detection

 found a total of           22  receivers, this is okay


 Preparing timerun:


 Preparing timerun constants

 Preparing array allocations
   arrays for acoustic domains
   arrays for elastic domains
   done initialization

 Preparing Stacey boundaries
   total number of absorbing boundary faces/edges:          200

 Attenuation:
   viscoelastic  attenuation: F (shear & bulk attenuation in elastic domains)
   viscoacoustic attenuation: F (bulk attenuation in acoustic domains)

 Preparing mass matrices
   initializing mass matrices
   adding Stacey contributions to mass matrix
   inverting mass matrices


 Preparing save forward simulation:
   estimated minimum period resolved by mesh        :    0.00000000    
   estimated number of time steps for minimum period:            0
   estimated steps between compute kernels (for a fair reconstruction):            0

   number of steps between compute kernels:            1


 Preparing source time function
   time stepping scheme:   Newmark
   time stepping stages:            1
   time step size      :    1.09999999E-03

   number of time steps:         1600
   number of sources   :            1

   saving the source time function in a text file...

 Movie simulation:
   color images         - JPEG image type:            2
   number of steps between outputs       :          100

 Preparing image coloring: jpeg
   allocating color image arrays
   locating all the pixels of color images
   total number of image pixels =       500131
   done locating all the pixels of color images
   coloring image background based on vp

 Checking mesh and stability

 ********
 Model: P (or PI) velocity min,max =    2200.0000000000000        3000.0000000000000     
 Model: S velocity min,max         =    1343.3750061962323        1732.0509991636227     
 Model: density min,max            =    2200.0000000000000        2700.0000000000000     
 ********


 *********************************************
 *** Verification of simulation parameters ***
 *********************************************

 *** Max grid size =    75.362712308944538     
 *** Min grid size =    35.806415963337713     
 *** Max/min ratio =    2.1047264933219965     

 *** Minimum GLL point distance  =    6.1828071590209834     
 *** Average GLL point distance  =    8.9516039908344283     

 *** Minimum period resolved     =    6.5266052217112194E-002
 *** Maximum frequency resolved  =    15.321901142012212      Hz

 *** Maximum suggested time step                 =    1.1449642887075896E-003
 *** Maximum suggested (Ricker) source frequency =    6.1287604568048852     

 *** for DT :    1.09999999E-03
 *** Max CFL stability condition of the time scheme based on P wave velocity (must be below about 0.50 or so) =   0.48036432441102217     

 ----
 Number of points per wavelength:
 ----
   Source            1
   maximum dominant source frequency =    25.000000000000000      Hz

   Nb pts / lambdaP_fmax min =    5.30766439    
   Nb pts / lambdaP_fmax max =    9.56952953    

   Nb pts / lambdaS_fmax min =    3.06438017    
   Nb pts / lambdaS_fmax max =    5.52497101    

 -----------------------------------------

 histogram of min number of points per S wavelength in solid regions:

 there are         3420  elements out of         4800  in solid regions
   (i.e.,    71.2500000     % of the total)

 (too small = poor resolution of calculations -
  too big = wasting memory and CPU time)
 (threshold value is around 4.5 points per S wavelength
  in elastic regions and 5.5 per P wavelength in fluid regions):

   3.06438017      -    3.18740988             180     5.26315784      %
   3.18740988      -    3.31043935             100     2.92397666      %
   3.31043935      -    3.43346882              80     2.33918118      %
   3.43346882      -    3.55649829              60     1.75438595      %
   3.55649829      -    3.67952800              80     2.33918118      %
   3.67952800      -    3.80255747              60     1.75438595      %
   3.80255747      -    3.92558694              80     2.33918118      %
   3.92558694      -    4.04861641              40     1.16959059      %
   4.04861641      -    4.17164612              80     2.33918118      %
   4.17164612      -    4.29467535             240     7.01754379      %
   4.29467535      -    4.41770506             100     2.92397666      %
   4.41770506      -    4.54073477             304     8.88888931      %
   4.54073477      -    4.66376400             916     26.7836266      %
   4.66376400      -    4.78679371             240     7.01754379      %
   4.78679371      -    4.90982342             200     5.84795332      %
   4.90982342      -    5.03285265              60     1.75438595      %
   5.03285265      -    5.15588236              80     2.33918118      %
   5.15588236      -    5.27891159             100     2.92397666      %
   5.27891159      -    5.40194130             200     5.84795332      %
   5.40194130      -    5.52497101             220     6.43274832      %

 total percentage =    99.999999999999972       %

 -----------------------------------------

 histogram of min number of points per P wavelength in fluid regions:

 there are         1380  elements out of         4800  in fluid regions
   (i.e.,    28.7500000     % of the total)

 (too small = poor resolution of calculations -
  too big = wasting memory and CPU time)
 (threshold value is around 4.5 points per S wavelength
  in elastic regions and 5.5 per P wavelength in fluid regions):

   8.38736725      -    8.39999866               3    0.217391297      %
   8.39999866      -    8.41262913               4    0.289855063      %
   8.41262913      -    8.42526054               5    0.362318844      %
   8.42526054      -    8.43789101               6    0.434782594      %
   8.43789101      -    8.45052242              13    0.942028999      %
   8.45052242      -    8.46315289               9    0.652173936      %
   8.46315289      -    8.47578430              16     1.15942025      %
   8.47578430      -    8.48841476              13    0.942028999      %
   8.48841476      -    8.50104618              16     1.15942025      %
   8.50104618      -    8.51367760              32     2.31884050      %
   8.51367760      -    8.52630806              38     2.75362325      %
   8.52630806      -    8.53893948              54     3.91304350      %
   8.53893948      -    8.55156994              94     6.81159401      %
   8.55156994      -    8.56420135              76     5.50724649      %
   8.56420135      -    8.57683182              79     5.72463751      %
   8.57683182      -    8.58946323              90     6.52173901      %
   8.58946323      -    8.60209370              99     7.17391300      %
   8.60209370      -    8.61472511             122     8.84057999      %
   8.61472511      -    8.62735653             167     12.1014490      %
   8.62735653      -    8.63998699             444     32.1739120      %

 total percentage =    100.00000000000000       %


 total number of elements in fluid and solid regions =         4800


 done, preparation successful


 =========================================
 =  T i m e  e v o l u t i o n  l o o p  =
 =========================================


 Starting time iteration loop ...


 ******************************************************************
Time step number       5   t =    0.0044 s out of    1600
 ******************************************************************
 We have done   0.250156343     % of the total
 Max norm of vector field in solid (elastic) =    5.90507670E-06
 Max absolute value of scalar field in fluid (acoustic) =    0.00000000    
 Elapsed time in seconds =    1.8000125885009766E-002
 Elapsed time in hh:mm:ss =      0 h 00 m 00 s
 Mean elapsed time per time step in seconds =    3.6000251770019532E-003
 Time steps remaining =         1595
 Estimated remaining time in seconds =    5.7420401573181152     
 Estimated remaining time in hh:mm:ss =      0 h 00 m 05 s
 Estimated total run time in seconds =    5.7600402832031250     
 Estimated total run time in hh:mm:ss =      0 h 00 m 05 s
 The run will finish approximately on: Mon Oct 04, 2021 21:02

 Creating color image of size          800  x          706  for time step            5
 drawing scalar image of the forward wavefield displacement...
 Color image maximum amplitude =    9.6968906291294843E-006
 Color image created


 ******************************************************************
Time step number     100   t =    0.1089 s out of    1600
 ******************************************************************
 We have done    6.19136953     % of the total
 Max norm of vector field in solid (elastic) =   0.149366736    
 Max absolute value of scalar field in fluid (acoustic) =    2.81995835E-06
 Elapsed time in seconds =   0.44900012016296387     
 Elapsed time in hh:mm:ss =      0 h 00 m 00 s
 Mean elapsed time per time step in seconds =    4.4900012016296387E-003
 Time steps remaining =         1500
 Estimated remaining time in seconds =    6.7350018024444580     
 Estimated remaining time in hh:mm:ss =      0 h 00 m 06 s
 Estimated total run time in seconds =    7.1840019226074219     
 Estimated total run time in hh:mm:ss =      0 h 00 m 07 s
 The run will finish approximately on: Mon Oct 04, 2021 21:02

 Creating color image of size          800  x          706  for time step          100
 drawing scalar image of the forward wavefield displacement...
 Color image maximum amplitude =   0.14856828749179840     
 Color image created


 ******************************************************************
Time step number     200   t =    0.2189 s out of    1600
 ******************************************************************
 We have done    12.4452782     % of the total
 Max norm of vector field in solid (elastic) =   0.152609348    
 Max absolute value of scalar field in fluid (acoustic) =    1.32673705    
 Elapsed time in seconds =   0.90799999237060547     
 Elapsed time in hh:mm:ss =      0 h 00 m 00 s
 Mean elapsed time per time step in seconds =    4.5399999618530272E-003
 Time steps remaining =         1400
 Estimated remaining time in seconds =    6.3559999465942383     
 Estimated remaining time in hh:mm:ss =      0 h 00 m 06 s
 Estimated total run time in seconds =    7.2639999389648438     
 Estimated total run time in hh:mm:ss =      0 h 00 m 07 s
 The run will finish approximately on: Mon Oct 04, 2021 21:02

 Creating color image of size          800  x          706  for time step          200
 drawing scalar image of the forward wavefield displacement...
 Color image maximum amplitude =   0.15311546623706818     
 Color image created


 ******************************************************************
Time step number     300   t =    0.3289 s out of    1600
 ******************************************************************
 We have done    18.6991863     % of the total
 Max norm of vector field in solid (elastic) =   0.111685395    
 Max absolute value of scalar field in fluid (acoustic) =    5132.20605    
 Elapsed time in seconds =    1.3519999980926514     
 Elapsed time in hh:mm:ss =      0 h 00 m 01 s
 Mean elapsed time per time step in seconds =    4.5066666603088383E-003
 Time steps remaining =         1300
 Estimated remaining time in seconds =    5.8586666584014901     
 Estimated remaining time in hh:mm:ss =      0 h 00 m 05 s
 Estimated total run time in seconds =    7.2106666564941415     
 Estimated total run time in hh:mm:ss =      0 h 00 m 07 s
 The run will finish approximately on: Mon Oct 04, 2021 21:02

 Creating color image of size          800  x          706  for time step          300
 drawing scalar image of the forward wavefield displacement...
 Color image maximum amplitude =   0.10845717042684555     
 Color image created


 ******************************************************************
Time step number     400   t =    0.4389 s out of    1600
 ******************************************************************
 We have done    24.9530964     % of the total
 Max norm of vector field in solid (elastic) =    9.42512229E-02
 Max absolute value of scalar field in fluid (acoustic) =    3958.40552    
 Elapsed time in seconds =    1.8330001831054688     
 Elapsed time in hh:mm:ss =      0 h 00 m 01 s
 Mean elapsed time per time step in seconds =    4.5825004577636722E-003
 Time steps remaining =         1200
 Estimated remaining time in seconds =    5.4990005493164062     
 Estimated remaining time in hh:mm:ss =      0 h 00 m 05 s
 Estimated total run time in seconds =    7.3320007324218750     
 Estimated total run time in hh:mm:ss =      0 h 00 m 07 s
 The run will finish approximately on: Mon Oct 04, 2021 21:02

 Creating color image of size          800  x          706  for time step          400
 drawing scalar image of the forward wavefield displacement...
 Color image maximum amplitude =    9.3826778233051300E-002
 Color image created


 ******************************************************************
Time step number     500   t =    0.5489 s out of    1600
 ******************************************************************
 We have done    31.2070045     % of the total
 Max norm of vector field in solid (elastic) =    9.34773535E-02
 Max absolute value of scalar field in fluid (acoustic) =    5218.37207    
 Elapsed time in seconds =    2.2770001888275146     
 Elapsed time in hh:mm:ss =      0 h 00 m 02 s
 Mean elapsed time per time step in seconds =    4.5540003776550295E-003
 Time steps remaining =         1100
 Estimated remaining time in seconds =    5.0094004154205320     
 Estimated remaining time in hh:mm:ss =      0 h 00 m 05 s
 Estimated total run time in seconds =    7.2864006042480467     
 Estimated total run time in hh:mm:ss =      0 h 00 m 07 s
 The run will finish approximately on: Mon Oct 04, 2021 21:02

 Creating color image of size          800  x          706  for time step          500
 drawing scalar image of the forward wavefield displacement...
 Color image maximum amplitude =    8.2374580204486847E-002
 Color image created


 ******************************************************************
Time step number     600   t =    0.6589 s out of    1600
 ******************************************************************
 We have done    37.4609146     % of the total
 Max norm of vector field in solid (elastic) =    8.33311379E-02
 Max absolute value of scalar field in fluid (acoustic) =    4839.91455    
 Elapsed time in seconds =    2.7260000705718994     
 Elapsed time in hh:mm:ss =      0 h 00 m 02 s
 Mean elapsed time per time step in seconds =    4.5433334509531655E-003
 Time steps remaining =         1000
 Estimated remaining time in seconds =    4.5433334509531651     
 Estimated remaining time in hh:mm:ss =      0 h 00 m 04 s
 Estimated total run time in seconds =    7.2693335215250645     
 Estimated total run time in hh:mm:ss =      0 h 00 m 07 s
 The run will finish approximately on: Mon Oct 04, 2021 21:02

 Creating color image of size          800  x          706  for time step          600
 drawing scalar image of the forward wavefield displacement...
 Color image maximum amplitude =    7.9726062715053558E-002
 Color image created


 ******************************************************************
Time step number     700   t =    0.7689 s out of    1600
 ******************************************************************
 We have done    43.7148209     % of the total
 Max norm of vector field in solid (elastic) =    8.56302232E-02
 Max absolute value of scalar field in fluid (acoustic) =    4481.51025    
 Elapsed time in seconds =    3.1740000247955322     
 Elapsed time in hh:mm:ss =      0 h 00 m 03 s
 Mean elapsed time per time step in seconds =    4.5342857497079033E-003
 Time steps remaining =          900
 Estimated remaining time in seconds =    4.0808571747371127     
 Estimated remaining time in hh:mm:ss =      0 h 00 m 04 s
 Estimated total run time in seconds =    7.2548571995326450     
 Estimated total run time in hh:mm:ss =      0 h 00 m 07 s
 The run will finish approximately on: Mon Oct 04, 2021 21:02

 Creating color image of size          800  x          706  for time step          700
 drawing scalar image of the forward wavefield displacement...
 Color image maximum amplitude =    7.0479445159435272E-002
 Color image created


 ******************************************************************
Time step number     800   t =    0.8789 s out of    1600
 ******************************************************************
 We have done    49.9687309     % of the total
 Max norm of vector field in solid (elastic) =    8.42890739E-02
 Max absolute value of scalar field in fluid (acoustic) =    4429.24658    
 Elapsed time in seconds =    3.6330001354217529     
 Elapsed time in hh:mm:ss =      0 h 00 m 03 s
 Mean elapsed time per time step in seconds =    4.5412501692771914E-003
 Time steps remaining =          800
 Estimated remaining time in seconds =    3.6330001354217529     
 Estimated remaining time in hh:mm:ss =      0 h 00 m 03 s
 Estimated total run time in seconds =    7.2660002708435059     
 Estimated total run time in hh:mm:ss =      0 h 00 m 07 s
 The run will finish approximately on: Mon Oct 04, 2021 21:02

 Creating color image of size          800  x          706  for time step          800
 drawing scalar image of the forward wavefield displacement...
 Color image maximum amplitude =    6.6154673695564270E-002
 Color image created


 ******************************************************************
Time step number     900   t =    0.9889 s out of    1600
 ******************************************************************
 We have done    56.2226410     % of the total
 Max norm of vector field in solid (elastic) =    8.25266019E-02
 Max absolute value of scalar field in fluid (acoustic) =    5129.15332    
 Elapsed time in seconds =    4.0900001525878906     
 Elapsed time in hh:mm:ss =      0 h 00 m 04 s
 Mean elapsed time per time step in seconds =    4.5444446139865455E-003
 Time steps remaining =          700
 Estimated remaining time in seconds =    3.1811112297905817     
 Estimated remaining time in hh:mm:ss =      0 h 00 m 03 s
 Estimated total run time in seconds =    7.2711113823784723     
 Estimated total run time in hh:mm:ss =      0 h 00 m 07 s
 The run will finish approximately on: Mon Oct 04, 2021 21:02

 Creating color image of size          800  x          706  for time step          900
 drawing scalar image of the forward wavefield displacement...
 Color image maximum amplitude =    7.0648469030857086E-002
 Color image created


 ******************************************************************
Time step number    1000   t =    1.0989 s out of    1600
 ******************************************************************
 We have done    62.4765472     % of the total
 Max norm of vector field in solid (elastic) =    8.70458186E-02
 Max absolute value of scalar field in fluid (acoustic) =    4269.07764    
 Elapsed time in seconds =    4.5500001907348633     
 Elapsed time in hh:mm:ss =      0 h 00 m 04 s
 Mean elapsed time per time step in seconds =    4.5500001907348630E-003
 Time steps remaining =          600
 Estimated remaining time in seconds =    2.7300001144409176     
 Estimated remaining time in hh:mm:ss =      0 h 00 m 02 s
 Estimated total run time in seconds =    7.2800003051757809     
 Estimated total run time in hh:mm:ss =      0 h 00 m 07 s
 The run will finish approximately on: Mon Oct 04, 2021 21:02


 Total number of time steps done:         1000
 Writing the seismograms by main proc alone took   0.117633998      seconds

 Creating color image of size          800  x          706  for time step         1000
 drawing scalar image of the forward wavefield displacement...
 Color image maximum amplitude =    7.0714958012104034E-002
 Color image created


 ******************************************************************
Time step number    1100   t =    1.2089 s out of    1600
 ******************************************************************
 We have done    68.7304535     % of the total
 Max norm of vector field in solid (elastic) =    9.37750489E-02
 Max absolute value of scalar field in fluid (acoustic) =    4078.08667    
 Elapsed time in seconds =    5.1340000629425049     
 Elapsed time in hh:mm:ss =      0 h 00 m 05 s
 Mean elapsed time per time step in seconds =    4.6672727844931866E-003
 Time steps remaining =          500
 Estimated remaining time in seconds =    2.3336363922465932     
 Estimated remaining time in hh:mm:ss =      0 h 00 m 02 s
 Estimated total run time in seconds =    7.4676364551890977     
 Estimated total run time in hh:mm:ss =      0 h 00 m 07 s
 The run will finish approximately on: Mon Oct 04, 2021 21:02

 Creating color image of size          800  x          706  for time step         1100
 drawing scalar image of the forward wavefield displacement...
 Color image maximum amplitude =    8.2343727350234985E-002
 Color image created


 ******************************************************************
Time step number    1200   t =    1.3189 s out of    1600
 ******************************************************************
 We have done    74.9843674     % of the total
 Max norm of vector field in solid (elastic) =    8.66804942E-02
 Max absolute value of scalar field in fluid (acoustic) =    4838.28564    
 Elapsed time in seconds =    5.5930001735687256     
 Elapsed time in hh:mm:ss =      0 h 00 m 05 s
 Mean elapsed time per time step in seconds =    4.6608334779739378E-003
 Time steps remaining =          400
 Estimated remaining time in seconds =    1.8643333911895752     
 Estimated remaining time in hh:mm:ss =      0 h 00 m 01 s
 Estimated total run time in seconds =    7.4573335647583008     
 Estimated total run time in hh:mm:ss =      0 h 00 m 07 s
 The run will finish approximately on: Mon Oct 04, 2021 21:02

 Creating color image of size          800  x          706  for time step         1200
 drawing scalar image of the forward wavefield displacement...
 Color image maximum amplitude =    6.4345739781856537E-002
 Color image created


 ******************************************************************
Time step number    1300   t =    1.4289 s out of    1600
 ******************************************************************
 We have done    81.2382736     % of the total
 Max norm of vector field in solid (elastic) =    7.35719204E-02
 Max absolute value of scalar field in fluid (acoustic) =    3211.33740    
 Elapsed time in seconds =    6.0490000247955322     
 Elapsed time in hh:mm:ss =      0 h 00 m 06 s
 Mean elapsed time per time step in seconds =    4.6530769421504097E-003
 Time steps remaining =          300
 Estimated remaining time in seconds =    1.3959230826451230     
 Estimated remaining time in hh:mm:ss =      0 h 00 m 01 s
 Estimated total run time in seconds =    7.4449231074406548     
 Estimated total run time in hh:mm:ss =      0 h 00 m 07 s
 The run will finish approximately on: Mon Oct 04, 2021 21:02

 Creating color image of size          800  x          706  for time step         1300
 drawing scalar image of the forward wavefield displacement...
 Color image maximum amplitude =    6.0824204236268997E-002
 Color image created


 ******************************************************************
Time step number    1400   t =    1.5389 s out of    1600
 ******************************************************************
 We have done    87.4921799     % of the total
 Max norm of vector field in solid (elastic) =    8.74123424E-02
 Max absolute value of scalar field in fluid (acoustic) =    2985.57886    
 Elapsed time in seconds =    6.5150001049041748     
 Elapsed time in hh:mm:ss =      0 h 00 m 06 s
 Mean elapsed time per time step in seconds =    4.6535715035029819E-003
 Time steps remaining =          200
 Estimated remaining time in seconds =   0.93071430070059635     
 Estimated remaining time in hh:mm:ss =      0 h 00 m 00 s
 Estimated total run time in seconds =    7.4457144056047708     
 Estimated total run time in hh:mm:ss =      0 h 00 m 07 s
 The run will finish approximately on: Mon Oct 04, 2021 21:02

 Creating color image of size          800  x          706  for time step         1400
 drawing scalar image of the forward wavefield displacement...
 Color image maximum amplitude =    7.6135262846946716E-002
 Color image created


 ******************************************************************
Time step number    1500   t =    1.6489 s out of    1600
 ******************************************************************
 We have done    93.7460938     % of the total
 Max norm of vector field in solid (elastic) =    7.95130283E-02
 Max absolute value of scalar field in fluid (acoustic) =    2800.36523    
 Elapsed time in seconds =    6.9730000495910645     
 Elapsed time in hh:mm:ss =      0 h 00 m 06 s
 Mean elapsed time per time step in seconds =    4.6486666997273760E-003
 Time steps remaining =          100
 Estimated remaining time in seconds =   0.46486666997273762     
 Estimated remaining time in hh:mm:ss =      0 h 00 m 00 s
 Estimated total run time in seconds =    7.4378667195638020     
 Estimated total run time in hh:mm:ss =      0 h 00 m 07 s
 The run will finish approximately on: Mon Oct 04, 2021 21:02

 Creating color image of size          800  x          706  for time step         1500
 drawing scalar image of the forward wavefield displacement...
 Color image maximum amplitude =    6.5277047455310822E-002
 Color image created


 ******************************************************************
Time step number    1600   t =    1.7589 s out of    1600
 ******************************************************************
 We have done    100.000000     % of the total
 Max norm of vector field in solid (elastic) =    8.50276574E-02
 Max absolute value of scalar field in fluid (acoustic) =    3953.93506    
 Elapsed time in seconds =    7.4309999942779541     
 Elapsed time in hh:mm:ss =      0 h 00 m 07 s
 Mean elapsed time per time step in seconds =    4.6443749964237210E-003
 Time steps remaining =            0
 Estimated remaining time in seconds =    0.0000000000000000     
 Estimated remaining time in hh:mm:ss =      0 h 00 m 00 s
 Estimated total run time in seconds =    7.4309999942779541     
 Estimated total run time in hh:mm:ss =      0 h 00 m 07 s


 Total number of time steps done:         1600
 Writing the seismograms by main proc alone took    6.97560012E-02  seconds

 Creating color image of size          800  x          706  for time step         1600
 drawing scalar image of the forward wavefield displacement...
 Color image maximum amplitude =    8.0563031136989594E-002
 Color image created


 Total duration of the time loop in seconds =    7.55278206      s
 Total number of time steps =         1600
 Average duration of a time step of the time loop =    4.72048856E-03  s
 Total number of spectral elements in the mesh =         4800
     of which         4800  are regular elements
     and            0  are PML elements.
 Average duration of the calculation per spectral element =    9.83435143E-07  s


 Total duration of the timeloop in seconds, measured using 
 date and time of the system :    7.55300045      s

 Saving forward arrays:
 Saving Stacey absorbing boundary contributions...
 Saving elastic last frame...
 Saving acoustic last frame...


 -------------------------------------------------------------------------------
 -------------------------------------------------------------------------------
 Program SPECFEM2D: 
 -------------------------------------------------------------------------------
 -------------------------------------------------------------------------------
 Test of SPECFEM2D with curved interfaces
 -------------------------------------------------------------------------------
 -------------------------------------------------------------------------------
 D a t e : 04 - 10 - 2021                                 T i m e  : 21:02:07
 -------------------------------------------------------------------------------
 -------------------------------------------------------------------------------

see results in directory: OUTPUT_FILES/

done
Mon Oct 4 21:02:07 +03 2021
OUTPUT_FILES/AA.S0001.BXX.semd -> SEM/AA.S0001.BXX.semd
OUTPUT_FILES/AA.S0001.BXZ.semd -> SEM/AA.S0001.BXZ.semd
OUTPUT_FILES/AA.S0002.BXX.semd -> SEM/AA.S0002.BXX.semd
OUTPUT_FILES/AA.S0002.BXZ.semd -> SEM/AA.S0002.BXZ.semd
OUTPUT_FILES/AA.S0003.BXX.semd -> SEM/AA.S0003.BXX.semd
OUTPUT_FILES/AA.S0003.BXZ.semd -> SEM/AA.S0003.BXZ.semd
OUTPUT_FILES/AA.S0004.BXX.semd -> SEM/AA.S0004.BXX.semd
OUTPUT_FILES/AA.S0004.BXZ.semd -> SEM/AA.S0004.BXZ.semd
OUTPUT_FILES/AA.S0005.BXX.semd -> SEM/AA.S0005.BXX.semd
OUTPUT_FILES/AA.S0005.BXZ.semd -> SEM/AA.S0005.BXZ.semd
OUTPUT_FILES/AA.S0006.BXX.semd -> SEM/AA.S0006.BXX.semd
OUTPUT_FILES/AA.S0006.BXZ.semd -> SEM/AA.S0006.BXZ.semd
OUTPUT_FILES/AA.S0007.BXX.semd -> SEM/AA.S0007.BXX.semd
OUTPUT_FILES/AA.S0007.BXZ.semd -> SEM/AA.S0007.BXZ.semd
OUTPUT_FILES/AA.S0008.BXX.semd -> SEM/AA.S0008.BXX.semd
OUTPUT_FILES/AA.S0008.BXZ.semd -> SEM/AA.S0008.BXZ.semd
OUTPUT_FILES/AA.S0009.BXX.semd -> SEM/AA.S0009.BXX.semd
OUTPUT_FILES/AA.S0009.BXZ.semd -> SEM/AA.S0009.BXZ.semd
OUTPUT_FILES/AA.S0010.BXX.semd -> SEM/AA.S0010.BXX.semd
OUTPUT_FILES/AA.S0010.BXZ.semd -> SEM/AA.S0010.BXZ.semd
OUTPUT_FILES/AA.S0011.BXX.semd -> SEM/AA.S0011.BXX.semd
OUTPUT_FILES/AA.S0011.BXZ.semd -> SEM/AA.S0011.BXZ.semd
OUTPUT_FILES/AA.S0012.BXX.semd -> SEM/AA.S0012.BXX.semd
OUTPUT_FILES/AA.S0012.BXZ.semd -> SEM/AA.S0012.BXZ.semd
OUTPUT_FILES/AA.S0013.BXX.semd -> SEM/AA.S0013.BXX.semd
OUTPUT_FILES/AA.S0013.BXZ.semd -> SEM/AA.S0013.BXZ.semd
OUTPUT_FILES/AA.S0014.BXX.semd -> SEM/AA.S0014.BXX.semd
OUTPUT_FILES/AA.S0014.BXZ.semd -> SEM/AA.S0014.BXZ.semd
OUTPUT_FILES/AA.S0015.BXX.semd -> SEM/AA.S0015.BXX.semd
OUTPUT_FILES/AA.S0015.BXZ.semd -> SEM/AA.S0015.BXZ.semd
OUTPUT_FILES/AA.S0016.BXX.semd -> SEM/AA.S0016.BXX.semd
OUTPUT_FILES/AA.S0016.BXZ.semd -> SEM/AA.S0016.BXZ.semd
OUTPUT_FILES/AA.S0017.BXX.semd -> SEM/AA.S0017.BXX.semd
OUTPUT_FILES/AA.S0017.BXZ.semd -> SEM/AA.S0017.BXZ.semd
OUTPUT_FILES/AA.S0018.BXX.semd -> SEM/AA.S0018.BXX.semd
OUTPUT_FILES/AA.S0018.BXZ.semd -> SEM/AA.S0018.BXZ.semd
OUTPUT_FILES/AA.S0019.BXX.semd -> SEM/AA.S0019.BXX.semd
OUTPUT_FILES/AA.S0019.BXZ.semd -> SEM/AA.S0019.BXZ.semd
OUTPUT_FILES/AA.S0020.BXX.semd -> SEM/AA.S0020.BXX.semd
OUTPUT_FILES/AA.S0020.BXZ.semd -> SEM/AA.S0020.BXZ.semd
OUTPUT_FILES/AA.S0021.BXX.semd -> SEM/AA.S0021.BXX.semd
OUTPUT_FILES/AA.S0021.BXZ.semd -> SEM/AA.S0021.BXZ.semd
OUTPUT_FILES/AA.S0022.BXX.semd -> SEM/AA.S0022.BXX.semd
OUTPUT_FILES/AA.S0022.BXZ.semd -> SEM/AA.S0022.BXZ.semd
AA.S0001.BXX.semd -> forward_run/AA.S0001.BXX.semd
AA.S0001.BXZ.semd -> forward_run/AA.S0001.BXZ.semd
AA.S0002.BXX.semd -> forward_run/AA.S0002.BXX.semd
AA.S0002.BXZ.semd -> forward_run/AA.S0002.BXZ.semd
AA.S0003.BXX.semd -> forward_run/AA.S0003.BXX.semd
AA.S0003.BXZ.semd -> forward_run/AA.S0003.BXZ.semd
AA.S0004.BXX.semd -> forward_run/AA.S0004.BXX.semd
AA.S0004.BXZ.semd -> forward_run/AA.S0004.BXZ.semd
AA.S0005.BXX.semd -> forward_run/AA.S0005.BXX.semd
AA.S0005.BXZ.semd -> forward_run/AA.S0005.BXZ.semd
AA.S0006.BXX.semd -> forward_run/AA.S0006.BXX.semd
AA.S0006.BXZ.semd -> forward_run/AA.S0006.BXZ.semd
AA.S0007.BXX.semd -> forward_run/AA.S0007.BXX.semd
AA.S0007.BXZ.semd -> forward_run/AA.S0007.BXZ.semd
AA.S0008.BXX.semd -> forward_run/AA.S0008.BXX.semd
AA.S0008.BXZ.semd -> forward_run/AA.S0008.BXZ.semd
AA.S0009.BXX.semd -> forward_run/AA.S0009.BXX.semd
AA.S0009.BXZ.semd -> forward_run/AA.S0009.BXZ.semd
AA.S0010.BXX.semd -> forward_run/AA.S0010.BXX.semd
AA.S0010.BXZ.semd -> forward_run/AA.S0010.BXZ.semd
AA.S0011.BXX.semd -> forward_run/AA.S0011.BXX.semd
AA.S0011.BXZ.semd -> forward_run/AA.S0011.BXZ.semd
AA.S0012.BXX.semd -> forward_run/AA.S0012.BXX.semd
AA.S0012.BXZ.semd -> forward_run/AA.S0012.BXZ.semd
AA.S0013.BXX.semd -> forward_run/AA.S0013.BXX.semd
AA.S0013.BXZ.semd -> forward_run/AA.S0013.BXZ.semd
AA.S0014.BXX.semd -> forward_run/AA.S0014.BXX.semd
AA.S0014.BXZ.semd -> forward_run/AA.S0014.BXZ.semd
AA.S0015.BXX.semd -> forward_run/AA.S0015.BXX.semd
AA.S0015.BXZ.semd -> forward_run/AA.S0015.BXZ.semd
AA.S0016.BXX.semd -> forward_run/AA.S0016.BXX.semd
AA.S0016.BXZ.semd -> forward_run/AA.S0016.BXZ.semd
AA.S0017.BXX.semd -> forward_run/AA.S0017.BXX.semd
AA.S0017.BXZ.semd -> forward_run/AA.S0017.BXZ.semd
AA.S0018.BXX.semd -> forward_run/AA.S0018.BXX.semd
AA.S0018.BXZ.semd -> forward_run/AA.S0018.BXZ.semd
AA.S0019.BXX.semd -> forward_run/AA.S0019.BXX.semd
AA.S0019.BXZ.semd -> forward_run/AA.S0019.BXZ.semd
AA.S0020.BXX.semd -> forward_run/AA.S0020.BXX.semd
AA.S0020.BXZ.semd -> forward_run/AA.S0020.BXZ.semd
AA.S0021.BXX.semd -> forward_run/AA.S0021.BXX.semd
AA.S0021.BXZ.semd -> forward_run/AA.S0021.BXZ.semd
AA.S0022.BXX.semd -> forward_run/AA.S0022.BXX.semd
AA.S0022.BXZ.semd -> forward_run/AA.S0022.BXZ.semd
Changed simulation_type to 3 in Par_file 

running solver...


 **********************************************
 **** Specfem 2-D Solver - MPI version     ****
 **********************************************

 Running Git version of the code corresponding to undefined in the case of old tar ball builds
 dating undefined in the case of old tar ball builds

 There are            1  MPI processes
 Processes are numbered from 0 to            0

 There is a total of            1  slices


 NDIM =            2

 NGLLX =            5
 NGLLZ =            5

 using single precision for the calculations

 smallest and largest possible floating-point numbers are:    1.17549435E-38   3.40282347E+38

 Reading the parameter file...

 Title of the simulation: Test of SPECFEM2D with curved interfaces


 Parameter file successfully read 

 Reading in SOURCE file...

 Source           1
   Position xs, zs =    2500.0000000000000        2500.0000000000000     

   Source type (1=force, 2=moment tensor):            1
   Force source:
   Angle of the source (deg) =    0.0000000000000000     

   Time function type (1=Ricker, 2=First derivative, 3=Gaussian, 4=Dirac, 5=Heaviside, 6,7=ocean type, 8=Read from file, 9=burst, 10=Sinusoidal, 11=Ormsby):           1
   Ricker wavelet (second-derivative):
   Frequency, delay =    10.000000000000000        0.0000000000000000     
   Multiplying factor  =    10000000000.000000     

 all sources are okay



 -------------------------------------------------------------------------------
 -------------------------------------------------------------------------------
 Program SPECFEM2D: 
 -------------------------------------------------------------------------------
 -------------------------------------------------------------------------------
 Test of SPECFEM2D with curved interfaces
 -------------------------------------------------------------------------------
 -------------------------------------------------------------------------------
 D a t e : 04 - 10 - 2021                                 T i m e  : 21:02:07
 -------------------------------------------------------------------------------
 -------------------------------------------------------------------------------


 C o n t r o l
 =============

     Number of spectral element control nodes. . .(npgeo) =   19481
     Number of space dimensions. . . . . . . . . . (NDIM) =       2


 C o n t r o l
 =============

     Display frequency . . . .(NSTEP_BETWEEN_OUTPUT_INFO) =    100
     Color display . . . . . . . . . . . . . . . (colors) =      1
      == 0     black and white display              
      == 1     color display                        
     Numbered mesh . . . . . . . . . . . . . . .(numbers) =      0
      == 0     do not number the mesh               
      == 1     number the mesh                      


 C o n t r o l
 =============

     Seismograms recording type . . . . . . .(seismotype) = 1
     Angle for first line of receivers. . . . .(anglerec) =   0.00


 C o n t r o l
 =============

     Read external initial field. . . . . .(initialfield) =      F
     Add Bielak conditions (add_Bielak_conditions_bottom) =      F
     Add Bielak conditions .(add_Bielak_conditions_right) =      F
     Add Bielak conditions . .(add_Bielak_conditions_top) =      F
     Add Bielak conditions. .(add_Bielak_conditions_left) =      F
     Attenuation in solid . . .(ATTENUATION_VISCOELASTIC) =      F
     Attenuation in fluid . . (ATTENUATION_VISCOACOUSTIC) =      F
     Save grid in ASCII file or not . (output_grid_ASCII) =      T
     Save a file with total energy or not.(OUTPUT_ENERGY) =      F


 C o n t r o l
 =============

     Vector display type . . . . . . . . .(imagetype_postscript) =      1
     Percentage of cut for vector plots. . . . . . . .(cutsnaps) =   1.00
     Subsampling of velocity model display. (subsamp_postscript) =      1


 I t e r a t i o n s 
 ===================

     Number of time iterations . . . . .(NSTEP) =    1600
     Time step increment. . . . . . . . . .(DT) =   1.100000E-03
     Total simulation duration . . . . . (ttot) =   1.760000E+00


 reading mesh databases:
 reading nodal coordinates...

 -- Spectral Elements --


     Number of spectral elements . . . . . . . . .  (nspec) =   4800
     Number of control nodes per element . . . . . (ngnod) =      9
     Number of points in X-direction . . . . . . . (NGLLX) =      5
     Number of points in Y-direction . . . . . . . (NGLLZ) =      5
     Number of points per element. . . . . . (NGLLX*NGLLZ) =     25
     Number of points for display . . . . . . (pointsdisp) =      6
     Number of element material sets . . . . . . . (numat) =      4
     Number of acoustic forcing elements (nelem_acforcing) =      0
     Number of acoustic free surf (nelem_acoustic_surface) =      0

 reading attenuation setup...
 reading material properties..


 M a t e r i a l   s e t s :   2 D  (p o r o) e l a s t i c i t y
 ======================================================

     Number of material sets . . . . . . (numat) =     4


     ----------------------------------------
     -- Elastic (solid) isotropic material --
     ----------------------------------------
     Material set number. . . . . . . . (jmat) =     1
     P-wave velocity. . . . . . . . . . . (cp) = 3.00000000E+03
     S-wave velocity. . . . . . . . . . . (cs) = 1.73205100E+03
     Mass density. . . . . . . . . . (density) = 2.70000000E+03
     Poisson's ratio. . . . . . . . .(poisson) = 2.49999917E-01
     First Lame parameter Lambda. . . (lambda) = 8.09999640E+09
     Second Lame parameter Mu. . . . . . .(mu) = 8.10000180E+09
     Bulk modulus Kappa . . . . . . . .(kappa) = 1.61999982E+10
     Young's modulus E. . . . . . . . .(young) = 2.08285751E+10
     QKappa_attenuation .  . . . . . .(QKappa) = 9.99900000E+03
     Qmu_attenuation . . . . . . . . . . (Qmu) = 9.99900000E+03



     -------------------------------
     -- Acoustic (fluid) material --
     -------------------------------
     Material set number. . . . . . . . (jmat) =     2
     P-wave velocity. . . . . . . . . . . (cp) = 2.70000000E+03
     Mass density. . . . . . . . . . (density) = 2.50000000E+03
     Bulk modulus Kappa . . . . . . . .(kappa) = 1.82250000E+10
     QKappa_attenuation. . . . . . . .(QKappa) = 9.99900000E+03
     Qmu_attenuation. . . . . . . . . . .(Qmu) = 9.99900000E+03



     ----------------------------------------
     -- Elastic (solid) isotropic material --
     ----------------------------------------
     Material set number. . . . . . . . (jmat) =     3
     P-wave velocity. . . . . . . . . . . (cp) = 2.50000000E+03
     S-wave velocity. . . . . . . . . . . (cs) = 1.44337500E+03
     Mass density. . . . . . . . . . (density) = 2.20000000E+03
     Poisson's ratio. . . . . . . . .(poisson) = 2.50000350E-01
     First Lame parameter Lambda. . . (lambda) = 4.58334188E+09
     Second Lame parameter Mu. . . . . . .(mu) = 4.58332906E+09
     Bulk modulus Kappa . . . . . . . .(kappa) = 9.16667094E+09
     Young's modulus E. . . . . . . . .(young) = 1.17857057E+10
     QKappa_attenuation .  . . . . . .(QKappa) = 9.99900000E+03
     Qmu_attenuation . . . . . . . . . . (Qmu) = 9.99900000E+03



     ----------------------------------------
     -- Elastic (solid) isotropic material --
     ----------------------------------------
     Material set number. . . . . . . . (jmat) =     4
     P-wave velocity. . . . . . . . . . . (cp) = 2.20000000E+03
     S-wave velocity. . . . . . . . . . . (cs) = 1.34337500E+03
     Mass density. . . . . . . . . . (density) = 2.20000000E+03
     Poisson's ratio. . . . . . . . .(poisson) = 2.02726178E-01
     First Lame parameter Lambda. . . (lambda) = 2.70751188E+09
     Second Lame parameter Mu. . . . . . .(mu) = 3.97024406E+09
     Bulk modulus Kappa . . . . . . . .(kappa) = 6.67775594E+09
     Young's modulus E. . . . . . . . .(young) = 9.94066572E+09
     QKappa_attenuation .  . . . . . .(QKappa) = 9.99900000E+03
     Qmu_attenuation . . . . . . . . . . (Qmu) = 9.99900000E+03

 reading interfaces informations...
   number of interfaces         =            0
 reading absorbing boundary...
   number of absorbing elements =          200

   any absorbing boundary flag  =  T
   PML boundary flag            =  F
   Stacey boundary flag         =  T


 Absorbing boundaries:
   using Stacey absorbing boundary conditions

   Total number of absorbing elements:          200
     nspec_left   =           60
     nspec_right  =           60
     nspec_bottom =           80
     nspec_top    =            0


 reading acoustic forcing...
   acoustic forcing                             =  F
   number of acoustic forcing boundary elements =            0
 reading free surface information...
   number of acoustic free surface boundary elements =            0
 reading coupling surfaces...
   number of fluid-solid edges  =          178
   number of fluid-poro  edges  =            0
   number of solid-poro  edges  =            0
 reading tangential curves...
   number of tangential curve nodes =            0
 reading axial elements...
   number of axial elements     =            0

 done reading mesh databases


 Setting up mesh

 Generating global mesh numbering (fast version)...

 Mesh numbering:
   Total number of elements:         4800

   Total number of acoustic elements           =         1380
   Total number of elastic/visco/poro elements =         3420

 Approximate total number of grid points in the mesh
 (with a few duplicates coming from MPI buffers):        77361

 Approximate number of acoustic degrees of freedom in the mesh:        22241
 Approximate number of elastic degrees of freedom in the mesh:       110239
   (there are 2 degrees of freedom per point for elastic elements)

 Approximate total number of degrees of freedom in the mesh
 (sum of the two values above):       132480

  (for simplicity viscoelastic or poroelastic elements, if any,
   are counted as elastic in the above three estimates;
   in reality they have more degrees of freedom)

 Mesh dimensions:
   Xmin,Xmax of the whole mesh =    0.0000000000000000        4000.0000000000005     
   Zmin,Zmax of the whole mesh =    0.0000000000000000        3355.8363405549972     


 Saving the grid in an ASCII text file...


 Generating gnuplot meshes...

 Material properties:
   MODEL                 : default
   nspec                 :         4800
   assign external model :  F

   setting up material arrays
   all material arrays done

 Domains:
   total number of acoustic elements        =         1380
   total number of elastic elements         =         3420
   total number of poroelastic elements     =            0

 Mixed acoustic/elastic simulation

   Beginning of fluid/solid edge detection
   Checking fluid/solid edge topology...
   End of fluid/solid edge detection

 excluding common points between acoustic absorbing edges and acoustic/elastic matching interfaces, if any

 Setting up MPI communication arrays

   maximum number of MPI interfaces (for a single slice) =            0

   This is a single process simulation, no need for MPI communication

   number of outer elements  =            0
   number of inner elements  =         4800

   percentage of outer elements    0.00000000     %
   percentage of inner elements    100.000000     %

   number of global nodes in outer elements  =            0
   number of global nodes in inner elements  =        77361

   determining communication phases:
   elastic domains:
   total number of outer/inner elements =            0        3420
   total percentage of outer elements    0.00000000     %
   total percentage of inner elements    100.000000     %

   acoustic domains:
   total number of outer/inner elements =            0        1380
   total percentage of outer elements    0.00000000     %
   total percentage of inner elements    100.000000     %

 All mesh setup done successfully

 sources:
   Total number of sources:            1


   Setting parameters for source           1

     Source Type. . . . . . . . . . . . . . = Collocated Force
     X-position (meters). . . . . . . . . . =    2.5000000000E+03
     Y-position (meters). . . . . . . . . . =    2.5000000000E+03
     Fundamental frequency (Hz) . . . . . . =    1.0000000000E+01
     Time delay (s) . . . . . . . . . . . . =    0.0000000000E+00
     Multiplying factor . . . . . . . . . . =    1.0000000000E+10
     Angle from vertical direction (deg). . =    0.0000000000E+00


   Source:            1
     Onset time. . . . . . =  -0.12000000000000000     
     Fundamental period. . =   0.10000000000000001     
     Fundamental frequency =    10.000000000000000     
     The onset time is ok

 Source:            1
 *******************************
  locating force source
 *******************************

 Force source:
             original x:    2500.00000    
             original z:    2500.00000    
 Closest estimate found:    0.00000000      m away
  in rank            0
  in element         3890
  in elastic domain
  at xi,gamma coordinates =    1.0000000000000000       -5.0847457627118647E-002


 end of force source detection


 receivers:

 Total number of receivers =           22


 ********************
  locating receivers
 ********************

 reading receiver information from the ./DATA/STATIONS file


 Station #            1     AA      S0001                           
             original x:    300.000000    
             original z:    2997.72998    
 Closest estimate found:    5.68434189E-14  m away
  in rank            0
  in element         4726
  in elastic domain
  at xi,gamma coordinates =    1.0000000000000000        1.0000000013196262     
 Distance from source:    2255.60083      m


 Station #            2     AA      S0002                           
             original x:    640.000000    
             original z:    3008.04297    
 Closest estimate found:    5.68434189E-13  m away
  in rank            0
  in element         4733
  in elastic domain
  at xi,gamma coordinates =   0.59999999999999210       0.99990160152470553     
 Distance from source:    1928.13586      m


 Station #            3     AA      S0003                           
             original x:    980.000000    
             original z:    3090.82251    
 Closest estimate found:    4.54747351E-13  m away
  in rank            0
  in element         4740
  in elastic domain
  at xi,gamma coordinates =   0.20000000000000001       0.99995735754260540     
 Distance from source:    1630.78845      m


 Station #            4     AA      S0004                           
             original x:    1320.00000    
             original z:    3283.03027    
 Closest estimate found:    0.00000000      m away
  in rank            0
  in element         4747
  in elastic domain
  at xi,gamma coordinates =  -0.20000000000000001       0.99988142896111831     
 Distance from source:    1416.16968      m


 Station #            5     AA      S0005                           
             original x:    1660.00000    
             original z:    3347.87695    
 Closest estimate found:    0.00000000      m away
  in rank            0
  in element         4754
  in elastic domain
  at xi,gamma coordinates =  -0.59999999999999121        1.0001975779557832     
 Distance from source:    1193.52222      m


 Station #            6     AA      S0006                           
             original x:    2000.00000    
             original z:    3250.00000    
 Closest estimate found:    0.00000000      m away
  in rank            0
  in element         4760
  in elastic domain
  at xi,gamma coordinates =    1.0000000000000000        1.0000000000000000     
 Distance from source:    901.387817      m


 Station #            7     AA      S0007                           
             original x:    2340.00000    
             original z:    3197.31372    
 Closest estimate found:    0.00000000      m away
  in rank            0
  in element         4767
  in elastic domain
  at xi,gamma coordinates =   0.60000000000003673        1.0000902964320597     
 Distance from source:    715.434509      m


[...]
 Color image created
 Creating color image of size          800  x          706  for time step          500
 drawing scalar image of the reconstructed forward wavefield displacement...
 Color image maximum amplitude =    8.3461165428161621E-002
 Color image created


 ******************************************************************
Time step number     600   t =    0.6589 s out of    1600
 ******************************************************************
 We have done    37.4609146     % of the total
 Max norm of vector field in solid (elastic) =    1.03190147E-11
 Max norm of backward vector field in solid (elastic) =    8.61206949E-02
 Max absolute value of scalar field in fluid (acoustic) =    1.06438929E-04
 Max absolute value of backward scalar field in fluid (acoustic) =    4167.22021    
 Elapsed time in seconds =    8.7899999618530273     
 Elapsed time in hh:mm:ss =      0 h 00 m 08 s
 Mean elapsed time per time step in seconds =    1.4649999936421713E-002
 Time steps remaining =         1000
 Estimated remaining time in seconds =    14.649999936421713     
 Estimated remaining time in hh:mm:ss =      0 h 00 m 14 s
 Estimated total run time in seconds =    23.439999898274742     
 Estimated total run time in hh:mm:ss =      0 h 00 m 23 s
 The run will finish approximately on: Mon Oct 04, 2021 21:03

 Creating color image of size          800  x          706  for time step          600
 drawing scalar image of the adjoint wavefield displacement...
 Color image maximum amplitude =    7.1837683371378525E-012
 Color image created
 Creating color image of size          800  x          706  for time step          600
 drawing scalar image of the reconstructed forward wavefield displacement...
 Color image maximum amplitude =    7.1453943848609924E-002
 Color image created


 ******************************************************************
Time step number     700   t =    0.7689 s out of    1600
 ******************************************************************
 We have done    43.7148209     % of the total
 Max norm of vector field in solid (elastic) =    7.54384142E-12
 Max norm of backward vector field in solid (elastic) =    8.75117928E-02
 Max absolute value of scalar field in fluid (acoustic) =    1.30948203E-04
 Max absolute value of backward scalar field in fluid (acoustic) =    5222.49951    
 Elapsed time in seconds =    10.231000185012817     
 Elapsed time in hh:mm:ss =      0 h 00 m 10 s
 Mean elapsed time per time step in seconds =    1.4615714550018311E-002
 Time steps remaining =          900
 Estimated remaining time in seconds =    13.154143095016479     
 Estimated remaining time in hh:mm:ss =      0 h 00 m 13 s
 Estimated total run time in seconds =    23.385143280029297     
 Estimated total run time in hh:mm:ss =      0 h 00 m 23 s
 The run will finish approximately on: Mon Oct 04, 2021 21:03

 Creating color image of size          800  x          706  for time step          700
 drawing scalar image of the adjoint wavefield displacement...
 Color image maximum amplitude =    7.1242794649761798E-012
 Color image created
 Creating color image of size          800  x          706  for time step          700
 drawing scalar image of the reconstructed forward wavefield displacement...
 Color image maximum amplitude =    6.9797195494174957E-002
 Color image created


 ******************************************************************
Time step number     800   t =    0.8789 s out of    1600
 ******************************************************************
 We have done    49.9687309     % of the total
 Max norm of vector field in solid (elastic) =    5.97115239E-12
 Max norm of backward vector field in solid (elastic) =    8.61720741E-02
 Max absolute value of scalar field in fluid (acoustic) =    1.22312937E-04
 Max absolute value of backward scalar field in fluid (acoustic) =    4436.98926    
 Elapsed time in seconds =    11.667000055313110     
 Elapsed time in hh:mm:ss =      0 h 00 m 11 s
 Mean elapsed time per time step in seconds =    1.4583750069141388E-002
 Time steps remaining =          800
 Estimated remaining time in seconds =    11.667000055313110     
 Estimated remaining time in hh:mm:ss =      0 h 00 m 11 s
 Estimated total run time in seconds =    23.334000110626221     
 Estimated total run time in hh:mm:ss =      0 h 00 m 23 s
 The run will finish approximately on: Mon Oct 04, 2021 21:03

 Creating color image of size          800  x          706  for time step          800
 drawing scalar image of the adjoint wavefield displacement...
 Color image maximum amplitude =    5.9028667370730759E-012
 Color image created
 Creating color image of size          800  x          706  for time step          800
 drawing scalar image of the reconstructed forward wavefield displacement...
 Color image maximum amplitude =    6.6804200410842896E-002
 Color image created


 ******************************************************************
Time step number     900   t =    0.9889 s out of    1600
 ******************************************************************
 We have done    56.2226410     % of the total
 Max norm of vector field in solid (elastic) =    5.10740972E-12
 Max norm of backward vector field in solid (elastic) =    8.80004615E-02
 Max absolute value of scalar field in fluid (acoustic) =    2.00649331E-04
 Max absolute value of backward scalar field in fluid (acoustic) =    4372.89111    
 Elapsed time in seconds =    13.095000028610229     
 Elapsed time in hh:mm:ss =      0 h 00 m 13 s
 Mean elapsed time per time step in seconds =    1.4550000031789145E-002
 Time steps remaining =          700
 Estimated remaining time in seconds =    10.185000022252401     
 Estimated remaining time in hh:mm:ss =      0 h 00 m 10 s
 Estimated total run time in seconds =    23.280000050862633     
 Estimated total run time in hh:mm:ss =      0 h 00 m 23 s
 The run will finish approximately on: Mon Oct 04, 2021 21:03

 Creating color image of size          800  x          706  for time step          900
 drawing scalar image of the adjoint wavefield displacement...
 Color image maximum amplitude =    4.6295293987252961E-012
 Color image created
 Creating color image of size          800  x          706  for time step          900
 drawing scalar image of the reconstructed forward wavefield displacement...
 Color image maximum amplitude =    6.9665506482124329E-002
 Color image created


 ******************************************************************
Time step number    1000   t =    1.0989 s out of    1600
 ******************************************************************
 We have done    62.4765472     % of the total
 Max norm of vector field in solid (elastic) =    1.22614800E-11
 Max norm of backward vector field in solid (elastic) =    8.55147839E-02
 Max absolute value of scalar field in fluid (acoustic) =    1.58079958E-04
 Max absolute value of backward scalar field in fluid (acoustic) =    4831.82080    
 Elapsed time in seconds =    14.525000095367432     
 Elapsed time in hh:mm:ss =      0 h 00 m 14 s
 Mean elapsed time per time step in seconds =    1.4525000095367432E-002
 Time steps remaining =          600
 Estimated remaining time in seconds =    8.7150000572204593     
 Estimated remaining time in hh:mm:ss =      0 h 00 m 08 s
 Estimated total run time in seconds =    23.240000152587889     
 Estimated total run time in hh:mm:ss =      0 h 00 m 23 s
 The run will finish approximately on: Mon Oct 04, 2021 21:03


 Total number of time steps done:         1000
 Writing the seismograms by main proc alone took   0.129604995      seconds

 Creating color image of size          800  x          706  for time step         1000
 drawing scalar image of the adjoint wavefield displacement...
 Color image maximum amplitude =    8.9894845040072724E-012
 Color image created
 Creating color image of size          800  x          706  for time step         1000
 drawing scalar image of the reconstructed forward wavefield displacement...
 Color image maximum amplitude =    8.0120556056499481E-002
 Color image created


 ******************************************************************
Time step number    1100   t =    1.2089 s out of    1600
 ******************************************************************
 We have done    68.7304535     % of the total
 Max norm of vector field in solid (elastic) =    5.78038051E-12
 Max norm of backward vector field in solid (elastic) =    9.05527920E-02
 Max absolute value of scalar field in fluid (acoustic) =    2.39728790E-04
 Max absolute value of backward scalar field in fluid (acoustic) =    4363.78662    
 Elapsed time in seconds =    16.091000080108643     
 Elapsed time in hh:mm:ss =      0 h 00 m 16 s
 Mean elapsed time per time step in seconds =    1.4628181891007857E-002
 Time steps remaining =          500
 Estimated remaining time in seconds =    7.3140909455039287     
 Estimated remaining time in hh:mm:ss =      0 h 00 m 07 s
 Estimated total run time in seconds =    23.405091025612570     
 Estimated total run time in hh:mm:ss =      0 h 00 m 23 s
 The run will finish approximately on: Mon Oct 04, 2021 21:03

 Creating color image of size          800  x          706  for time step         1100
 drawing scalar image of the adjoint wavefield displacement...
 Color image maximum amplitude =    5.9232861671087988E-012
 Color image created
 Creating color image of size          800  x          706  for time step         1100
 drawing scalar image of the reconstructed forward wavefield displacement...
 Color image maximum amplitude =    8.2114644348621368E-002
 Color image created


 ******************************************************************
Time step number    1200   t =    1.3189 s out of    1600
 ******************************************************************
 We have done    74.9843674     % of the total
 Max norm of vector field in solid (elastic) =    4.41727644E-12
 Max norm of backward vector field in solid (elastic) =    9.49290171E-02
 Max absolute value of scalar field in fluid (acoustic) =    2.22411414E-04
 Max absolute value of backward scalar field in fluid (acoustic) =    3937.40283    
 Elapsed time in seconds =    17.526000022888184     
 Elapsed time in hh:mm:ss =      0 h 00 m 17 s
 Mean elapsed time per time step in seconds =    1.4605000019073486E-002
 Time steps remaining =          400
 Estimated remaining time in seconds =    5.8420000076293945     
 Estimated remaining time in hh:mm:ss =      0 h 00 m 05 s
 Estimated total run time in seconds =    23.368000030517578     
 Estimated total run time in hh:mm:ss =      0 h 00 m 23 s
 The run will finish approximately on: Mon Oct 04, 2021 21:03

 Creating color image of size          800  x          706  for time step         1200
 drawing scalar image of the adjoint wavefield displacement...
 Color image maximum amplitude =    3.7896847118745747E-012
 Color image created
 Creating color image of size          800  x          706  for time step         1200
 drawing scalar image of the reconstructed forward wavefield displacement...
 Color image maximum amplitude =    9.3785680830478668E-002
 Color image created


 ******************************************************************
Time step number    1300   t =    1.4289 s out of    1600
 ******************************************************************
 We have done    81.2382736     % of the total
 Max norm of vector field in solid (elastic) =    5.98351143E-12
 Max norm of backward vector field in solid (elastic) =   0.112265244    
 Max absolute value of scalar field in fluid (acoustic) =    2.66246439E-04
 Max absolute value of backward scalar field in fluid (acoustic) =    5068.36279    
 Elapsed time in seconds =    18.968000173568726     
 Elapsed time in hh:mm:ss =      0 h 00 m 18 s
 Mean elapsed time per time step in seconds =    1.4590769364283634E-002
 Time steps remaining =          300
 Estimated remaining time in seconds =    4.3772308092850905     
 Estimated remaining time in hh:mm:ss =      0 h 00 m 04 s
 Estimated total run time in seconds =    23.345230982853817     
 Estimated total run time in hh:mm:ss =      0 h 00 m 23 s
 The run will finish approximately on: Mon Oct 04, 2021 21:03

 Creating color image of size          800  x          706  for time step         1300
 drawing scalar image of the adjoint wavefield displacement...
 Color image maximum amplitude =    5.7582072790496319E-012
 Color image created
 Creating color image of size          800  x          706  for time step         1300
 drawing scalar image of the reconstructed forward wavefield displacement...
 Color image maximum amplitude =   0.11071635782718658     
 Color image created


 ******************************************************************
Time step number    1400   t =    1.5389 s out of    1600
 ******************************************************************
 We have done    87.4921799     % of the total
 Max norm of vector field in solid (elastic) =    7.22968777E-12
 Max norm of backward vector field in solid (elastic) =   0.151852295    
 Max absolute value of scalar field in fluid (acoustic) =    2.69613578E-04
 Max absolute value of backward scalar field in fluid (acoustic) =    2.44775033    
 Elapsed time in seconds =    20.388000011444092     
 Elapsed time in hh:mm:ss =      0 h 00 m 20 s
 Mean elapsed time per time step in seconds =    1.4562857151031495E-002
 Time steps remaining =          200
 Estimated remaining time in seconds =    2.9125714302062988     
 Estimated remaining time in hh:mm:ss =      0 h 00 m 02 s
 Estimated total run time in seconds =    23.300571441650391     
 Estimated total run time in hh:mm:ss =      0 h 00 m 23 s
 The run will finish approximately on: Mon Oct 04, 2021 21:03

 Creating color image of size          800  x          706  for time step         1400
 drawing scalar image of the adjoint wavefield displacement...
 Color image maximum amplitude =    7.1190544778665377E-012
 Color image created
 Creating color image of size          800  x          706  for time step         1400
 drawing scalar image of the reconstructed forward wavefield displacement...
 Color image maximum amplitude =   0.15284229815006256     
 Color image created


 ******************************************************************
Time step number    1500   t =    1.6489 s out of    1600
 ******************************************************************
 We have done    93.7460938     % of the total
 Max norm of vector field in solid (elastic) =    4.41980237E-11
 Max norm of backward vector field in solid (elastic) =   0.214293480    
 Max absolute value of scalar field in fluid (acoustic) =    2.98158702E-04
 Max absolute value of backward scalar field in fluid (acoustic) =    2.82702986E-02
 Elapsed time in seconds =    21.827000141143799     
 Elapsed time in hh:mm:ss =      0 h 00 m 21 s
 Mean elapsed time per time step in seconds =    1.4551333427429199E-002
 Time steps remaining =          100
 Estimated remaining time in seconds =    1.4551333427429198     
 Estimated remaining time in hh:mm:ss =      0 h 00 m 01 s
 Estimated total run time in seconds =    23.282133483886717     
 Estimated total run time in hh:mm:ss =      0 h 00 m 23 s
 The run will finish approximately on: Mon Oct 04, 2021 21:03

 Creating color image of size          800  x          706  for time step         1500
 drawing scalar image of the adjoint wavefield displacement...
 Color image maximum amplitude =    4.1950005968960369E-011
 Color image created
 Creating color image of size          800  x          706  for time step         1500
 drawing scalar image of the reconstructed forward wavefield displacement...
 Color image maximum amplitude =   0.17150257527828217     
 Color image created


 ******************************************************************
Time step number    1600   t =    1.7589 s out of    1600
 ******************************************************************
 We have done    100.000000     % of the total
 Max norm of vector field in solid (elastic) =    1.27958703E-11
 Max norm of backward vector field in solid (elastic) =    1.46218997E-06
 Max absolute value of scalar field in fluid (acoustic) =    3.76345532E-04
 Max absolute value of backward scalar field in fluid (acoustic) =    3.18738706E-02
 Elapsed time in seconds =    23.251000165939331     
 Elapsed time in hh:mm:ss =      0 h 00 m 23 s
 Mean elapsed time per time step in seconds =    1.4531875103712082E-002
 Time steps remaining =            0
 Estimated remaining time in seconds =    0.0000000000000000     
 Estimated remaining time in hh:mm:ss =      0 h 00 m 00 s
 Estimated total run time in seconds =    23.251000165939331     
 Estimated total run time in hh:mm:ss =      0 h 00 m 23 s


 Total number of time steps done:         1600
 Writing the seismograms by main proc alone took    6.96920007E-02  seconds

 Creating color image of size          800  x          706  for time step         1600
 drawing scalar image of the adjoint wavefield displacement...
 Color image maximum amplitude =    1.1401188153292718E-011
 Color image created
 Creating color image of size          800  x          706  for time step         1600
 drawing scalar image of the reconstructed forward wavefield displacement...
 Color image maximum amplitude =    1.3198078931964119E-006
 Color image created


 Total duration of the time loop in seconds =    23.4424133      s
 Total number of time steps =         1600
 Average duration of a time step of the time loop =    1.46515081E-02  s
 Total number of spectral elements in the mesh =         4800
     of which         4800  are regular elements
     and            0  are PML elements.
 Average duration of the calculation per spectral element =    3.05239746E-06  s


 Total duration of the timeloop in seconds, measured using 
 date and time of the system :    23.4419994      s

 Writing Kernels file

 Acoustic kernels:
   maximum value of rho kernel       =    2.27260397E-08
   maximum value of kappa kernel     =    5.60492364E-09

   maximum value of rho prime kernel =    2.16011316E-08
   maximum value of alpha kernel     =    1.12098473E-08

 Elastic kernels:
   maximum value of rho  kernel      =    7.10382210E-06
   maximum value of kappa kernel     =    8.33932674E-08
   maximum value of mu kernel        =    1.08795359E-06

   maximum value of rho prime kernel =    4.50558218E-07
   maximum value of alpha kernel     =    2.77977421E-07
   maximum value of beta kernel      =    4.35205720E-06



 -------------------------------------------------------------------------------
 -------------------------------------------------------------------------------
 Program SPECFEM2D: 
 -------------------------------------------------------------------------------
 -------------------------------------------------------------------------------
 Test of SPECFEM2D with curved interfaces
 -------------------------------------------------------------------------------
 -------------------------------------------------------------------------------
 D a t e : 04 - 10 - 2021                                 T i m e  : 21:02:34
 -------------------------------------------------------------------------------
 -------------------------------------------------------------------------------


plotting kernel file:  OUTPUT_FILES/proc000000_rhop_alpha_beta_kernel.dat

dimensions:
  x-range min/max = 0.000000 / 4000.000000
  y-range min/max = 0.000000 / 3355.800000

statistics:
        K_rhop : min/max = -1.967200e-05 / 4.505600e-07
       K_alpha : min/max = -1.271300e-05 / 2.779800e-07
        K_beta : min/max = -3.019000e-05 / 4.352100e-06

  data max =  3.019e-05

plot: color scale max =  1e-08

*****
plotted file:  OUTPUT_FILES/proc000000_rhop_alpha_beta_kernel.png
*****


DATA/Par_file.bak -> DATA/Par_file

see results in directory: OUTPUT_FILES/

done
Mon Oct 4 21:02:39 +03 2021
